*SPEF "ieee 1481-1999"
*DESIGN "brownout_dig"
*DATE "23:20:18 Thursday April 11, 2024"
*VENDOR "The OpenROAD Project"
*PROGRAM "OpenROAD"
*VERSION "0889970d1790a2617e69f253221b8bd7626e51dc"
*DESIGN_FLOW "NAME_SCOPE LOCAL" "PIN_CAP NONE"
*DIVIDER /
*DELIMITER :
*BUS_DELIMITER []
*T_UNIT 1 NS
*C_UNIT 1 PF
*R_UNIT 1 OHM
*L_UNIT 1 HENRY

*NAME_MAP
*3 brout_filt
*4 dcomp
*5 ena
*6 force_dis_rc_osc
*7 force_ena_rc_osc
*8 force_short_oneshot
*9 osc_ck
*10 osc_ena
*11 otrip[0]
*12 otrip[1]
*13 otrip[2]
*14 otrip_decoded[0]
*15 otrip_decoded[1]
*16 otrip_decoded[2]
*17 otrip_decoded[3]
*18 otrip_decoded[4]
*19 otrip_decoded[5]
*20 otrip_decoded[6]
*21 otrip_decoded[7]
*22 outb_unbuf
*23 timed_out
*24 vtrip[0]
*25 vtrip[1]
*26 vtrip[2]
*27 vtrip_decoded[0]
*28 vtrip_decoded[1]
*29 vtrip_decoded[2]
*30 vtrip_decoded[3]
*31 vtrip_decoded[4]
*32 vtrip_decoded[5]
*33 vtrip_decoded[6]
*34 vtrip_decoded[7]
*35 _000_
*36 _001_
*37 _002_
*38 _003_
*39 _004_
*40 _005_
*41 _006_
*42 _007_
*43 _008_
*44 _009_
*45 _010_
*46 _011_
*47 _012_
*48 _013_
*49 _014_
*50 _015_
*51 _016_
*52 _017_
*53 _018_
*54 _019_
*55 _020_
*56 _021_
*57 _022_
*58 _023_
*59 _024_
*60 _025_
*61 _026_
*62 _027_
*63 _028_
*64 _029_
*65 _030_
*66 _031_
*67 _032_
*68 _033_
*69 _034_
*70 _035_
*71 _036_
*72 _037_
*73 _038_
*74 _039_
*75 _040_
*76 _041_
*77 _042_
*78 clknet_0_osc_ck
*79 clknet_1_0__leaf_osc_ck
*80 clknet_1_1__leaf_osc_ck
*81 clr_cnt
*82 clr_cnt_sb
*83 clr_cnt_sb_stg1
*84 cnt\[0\]
*85 cnt\[10\]
*86 cnt\[11\]
*87 cnt\[1\]
*88 cnt\[2\]
*89 cnt\[3\]
*90 cnt\[4\]
*91 cnt\[5\]
*92 cnt\[6\]
*93 cnt\[7\]
*94 cnt\[8\]
*95 cnt\[9\]
*96 dcomp_ena_rsb
*97 dcomp_retimed
*98 net1
*99 net10
*100 net11
*101 net12
*102 net13
*103 net14
*104 net15
*105 net16
*106 net17
*107 net18
*108 net19
*109 net2
*110 net20
*111 net21
*112 net22
*113 net23
*114 net24
*115 net25
*116 net26
*117 net27
*118 net28
*119 net29
*120 net3
*121 net30
*122 net31
*123 net32
*124 net33
*125 net34
*126 net35
*127 net36
*128 net37
*129 net38
*130 net39
*131 net4
*132 net5
*133 net6
*134 net7
*135 net8
*136 net9
*137 FILLER_0_0_15
*138 FILLER_0_0_23
*139 FILLER_0_0_3
*140 FILLER_0_0_43
*141 FILLER_0_0_55
*142 FILLER_0_0_79
*143 FILLER_0_0_85
*144 FILLER_0_0_91
*145 FILLER_0_10_3
*146 FILLER_0_10_37
*147 FILLER_0_11_11
*148 FILLER_0_11_3
*149 FILLER_0_11_34
*150 FILLER_0_11_52
*151 FILLER_0_11_57
*152 FILLER_0_11_75
*153 FILLER_0_12_19
*154 FILLER_0_12_27
*155 FILLER_0_12_61
*156 FILLER_0_12_7
*157 FILLER_0_12_85
*158 FILLER_0_12_93
*159 FILLER_0_13_15
*160 FILLER_0_13_23
*161 FILLER_0_13_3
*162 FILLER_0_13_31
*163 FILLER_0_13_43
*164 FILLER_0_13_55
*165 FILLER_0_13_57
*166 FILLER_0_13_69
*167 FILLER_0_13_81
*168 FILLER_0_13_93
*169 FILLER_0_14_15
*170 FILLER_0_14_29
*171 FILLER_0_14_3
*172 FILLER_0_14_69
*173 FILLER_0_14_79
*174 FILLER_0_14_83
*175 FILLER_0_14_85
*176 FILLER_0_14_93
*177 FILLER_0_15_27
*178 FILLER_0_15_29
*179 FILLER_0_15_3
*180 FILLER_0_15_37
*181 FILLER_0_15_57
*182 FILLER_0_15_65
*183 FILLER_0_15_72
*184 FILLER_0_15_85
*185 FILLER_0_15_93
*186 FILLER_0_1_15
*187 FILLER_0_1_27
*188 FILLER_0_1_3
*189 FILLER_0_1_31
*190 FILLER_0_1_44
*191 FILLER_0_1_57
*192 FILLER_0_1_85
*193 FILLER_0_1_89
*194 FILLER_0_2_23
*195 FILLER_0_2_27
*196 FILLER_0_2_29
*197 FILLER_0_2_38
*198 FILLER_0_2_50
*199 FILLER_0_2_62
*200 FILLER_0_2_74
*201 FILLER_0_2_82
*202 FILLER_0_2_85
*203 FILLER_0_2_93
*204 FILLER_0_3_16
*205 FILLER_0_3_43
*206 FILLER_0_3_48
*207 FILLER_0_3_57
*208 FILLER_0_3_6
*209 FILLER_0_3_69
*210 FILLER_0_3_81
*211 FILLER_0_4_23
*212 FILLER_0_4_37
*213 FILLER_0_4_60
*214 FILLER_0_4_82
*215 FILLER_0_4_92
*216 FILLER_0_5_3
*217 FILLER_0_5_39
*218 FILLER_0_5_72
*219 FILLER_0_6_29
*220 FILLER_0_6_55
*221 FILLER_0_6_6
*222 FILLER_0_6_92
*223 FILLER_0_7_11
*224 FILLER_0_7_15
*225 FILLER_0_7_3
*226 FILLER_0_7_54
*227 FILLER_0_7_69
*228 FILLER_0_7_77
*229 FILLER_0_8_15
*230 FILLER_0_8_23
*231 FILLER_0_8_29
*232 FILLER_0_8_3
*233 FILLER_0_8_39
*234 FILLER_0_8_63
*235 FILLER_0_9_15
*236 FILLER_0_9_19
*237 FILLER_0_9_3
*238 FILLER_0_9_49
*239 FILLER_0_9_55
*240 FILLER_0_9_71
*241 PHY_EDGE_ROW_0_Left_16
*242 PHY_EDGE_ROW_0_Right_0
*243 PHY_EDGE_ROW_10_Left_26
*244 PHY_EDGE_ROW_10_Right_10
*245 PHY_EDGE_ROW_11_Left_27
*246 PHY_EDGE_ROW_11_Right_11
*247 PHY_EDGE_ROW_12_Left_28
*248 PHY_EDGE_ROW_12_Right_12
*249 PHY_EDGE_ROW_13_Left_29
*250 PHY_EDGE_ROW_13_Right_13
*251 PHY_EDGE_ROW_14_Left_30
*252 PHY_EDGE_ROW_14_Right_14
*253 PHY_EDGE_ROW_15_Left_31
*254 PHY_EDGE_ROW_15_Right_15
*255 PHY_EDGE_ROW_1_Left_17
*256 PHY_EDGE_ROW_1_Right_1
*257 PHY_EDGE_ROW_2_Left_18
*258 PHY_EDGE_ROW_2_Right_2
*259 PHY_EDGE_ROW_3_Left_19
*260 PHY_EDGE_ROW_3_Right_3
*261 PHY_EDGE_ROW_4_Left_20
*262 PHY_EDGE_ROW_4_Right_4
*263 PHY_EDGE_ROW_5_Left_21
*264 PHY_EDGE_ROW_5_Right_5
*265 PHY_EDGE_ROW_6_Left_22
*266 PHY_EDGE_ROW_6_Right_6
*267 PHY_EDGE_ROW_7_Left_23
*268 PHY_EDGE_ROW_7_Right_7
*269 PHY_EDGE_ROW_8_Left_24
*270 PHY_EDGE_ROW_8_Right_8
*271 PHY_EDGE_ROW_9_Left_25
*272 PHY_EDGE_ROW_9_Right_9
*273 TAP_TAPCELL_ROW_0_32
*274 TAP_TAPCELL_ROW_0_33
*275 TAP_TAPCELL_ROW_0_34
*276 TAP_TAPCELL_ROW_10_48
*277 TAP_TAPCELL_ROW_10_49
*278 TAP_TAPCELL_ROW_11_50
*279 TAP_TAPCELL_ROW_12_51
*280 TAP_TAPCELL_ROW_12_52
*281 TAP_TAPCELL_ROW_13_53
*282 TAP_TAPCELL_ROW_14_54
*283 TAP_TAPCELL_ROW_14_55
*284 TAP_TAPCELL_ROW_15_56
*285 TAP_TAPCELL_ROW_15_57
*286 TAP_TAPCELL_ROW_15_58
*287 TAP_TAPCELL_ROW_1_35
*288 TAP_TAPCELL_ROW_2_36
*289 TAP_TAPCELL_ROW_2_37
*290 TAP_TAPCELL_ROW_3_38
*291 TAP_TAPCELL_ROW_4_39
*292 TAP_TAPCELL_ROW_4_40
*293 TAP_TAPCELL_ROW_5_41
*294 TAP_TAPCELL_ROW_6_42
*295 TAP_TAPCELL_ROW_6_43
*296 TAP_TAPCELL_ROW_7_44
*297 TAP_TAPCELL_ROW_8_45
*298 TAP_TAPCELL_ROW_8_46
*299 TAP_TAPCELL_ROW_9_47
*300 _043_
*301 _044_
*302 _045_
*303 _046_
*304 _047_
*305 _048_
*306 _049_
*307 _050_
*308 _051_
*309 _052_
*310 _053_
*311 _054_
*312 _055_
*313 _056_
*314 _057_
*315 _058_
*316 _059_
*317 _060_
*318 _061_
*319 _062_
*320 _063_
*321 _064_
*322 _065_
*323 _066_
*324 _067_
*325 _068_
*326 _069_
*327 _070_
*328 _071_
*329 _072_
*330 _073_
*331 _074_
*332 _075_
*333 _076_
*334 _077_
*335 _078_
*336 _079_
*337 _080_
*338 _081_
*339 _082_
*340 _083_
*341 _084_
*342 _085_
*343 _086_
*344 _087_
*345 _088_
*346 _089_
*347 _090_
*348 _091_
*349 _092_
*350 _093_
*351 _094_
*352 _095_
*353 _096_
*354 _097_
*355 _098_
*356 _099_
*357 _100_
*358 _101_
*359 _102_
*360 _103_
*361 _104_
*362 _105_
*363 _106_
*364 _107_
*365 _108_
*366 _109_
*367 _110_
*368 _111_
*369 _112_
*370 _113_
*371 _114_
*372 _115_
*373 _116_
*374 _117_
*375 _118_
*376 _118__34
*377 _119_
*378 _119__35
*379 _120_
*380 _121_
*381 clkbuf_0_osc_ck
*382 clkbuf_1_0__f_osc_ck
*383 clkbuf_1_1__f_osc_ck
*384 fanout32
*385 fanout33
*386 hold1
*387 hold2
*388 hold3
*389 hold4
*390 input1
*391 input10
*392 input11
*393 input12
*394 input2
*395 input3
*396 input4
*397 input5
*398 input6
*399 input7
*400 input8
*401 input9
*402 output13
*403 output14
*404 output15
*405 output16
*406 output17
*407 output18
*408 output19
*409 output20
*410 output21
*411 output22
*412 output23
*413 output24
*414 output25
*415 output26
*416 output27
*417 output28
*418 output29
*419 output30
*420 output31

*PORTS
brout_filt I
dcomp I
ena I
force_dis_rc_osc I
force_ena_rc_osc I
force_short_oneshot I
osc_ck I
osc_ena O
otrip[0] I
otrip[1] I
otrip[2] I
otrip_decoded[0] O
otrip_decoded[1] O
otrip_decoded[2] O
otrip_decoded[3] O
otrip_decoded[4] O
otrip_decoded[5] O
otrip_decoded[6] O
otrip_decoded[7] O
outb_unbuf O
timed_out O
vtrip[0] I
vtrip[1] I
vtrip[2] I
vtrip_decoded[0] O
vtrip_decoded[1] O
vtrip_decoded[2] O
vtrip_decoded[3] O
vtrip_decoded[4] O
vtrip_decoded[5] O
vtrip_decoded[6] O
vtrip_decoded[7] O

*D_NET *3 0.000460631
*CONN
*P brout_filt I
*I *390:A I *D sky130_fd_sc_hd__buf_1
*CAP
1 brout_filt 0.000225033
2 *390:A 0.000225033
3 *390:A *126:8 1.05658e-05
*RES
1 brout_filt *390:A 47.0789 
*END

*D_NET *4 0.000600723
*CONN
*P dcomp I
*I *394:A I *D sky130_fd_sc_hd__clkbuf_1
*CAP
1 dcomp 0.000256281
2 *394:A 0.000256281
3 *394:A outb_unbuf 4.40799e-05
4 *394:A *7:15 4.40799e-05
5 *394:A *113:44 0
*RES
1 dcomp *394:A 49.7598 
*END

*D_NET *5 0.000588314
*CONN
*P ena I
*I *395:A I *D sky130_fd_sc_hd__clkbuf_2
*CAP
1 ena 0.000276684
2 *395:A 0.000276684
3 *395:A *9:17 3.49463e-05
*RES
1 ena *395:A 49.6532 
*END

*D_NET *6 0.0010934
*CONN
*P force_dis_rc_osc I
*I *396:A I *D sky130_fd_sc_hd__clkbuf_1
*CAP
1 force_dis_rc_osc 0.000498447
2 *396:A 0.000498447
3 *396:A osc_ena 9.65101e-05
*RES
1 force_dis_rc_osc *396:A 47.9376 
*END

*D_NET *7 0.00154588
*CONN
*P force_ena_rc_osc I
*I *397:A I *D sky130_fd_sc_hd__clkbuf_1
*CAP
1 force_ena_rc_osc 0.000543976
2 *397:A 0
3 *7:15 0.000543976
4 *7:15 osc_ena 9.65101e-05
5 *7:15 outb_unbuf 0
6 *7:15 *328:B 4.27467e-05
7 *7:15 *72:8 2.47015e-05
8 *7:15 *96:8 0
9 *7:15 *97:8 4.75766e-05
10 *7:15 *97:12 9.6103e-05
11 *7:15 *97:22 4.95081e-05
12 *7:15 *113:52 5.67058e-05
13 *394:A *7:15 4.40799e-05
*RES
1 force_ena_rc_osc *7:15 30.4857 
2 *7:15 *397:A 23 
*END

*D_NET *8 0.00070867
*CONN
*P force_short_oneshot I
*I *398:A I *D sky130_fd_sc_hd__buf_1
*CAP
1 force_short_oneshot 0.000310255
2 *398:A 0
3 *8:15 0.000310255
4 *8:15 outb_unbuf 4.40799e-05
5 *8:15 timed_out 4.40799e-05
6 *8:15 *309:A 0
7 *8:15 *95:27 0
*RES
1 force_short_oneshot *8:15 27.8162 
2 *8:15 *398:A 23 
*END

*D_NET *9 0.00460983
*CONN
*P osc_ck I
*I *381:A I *D sky130_fd_sc_hd__clkbuf_16
*CAP
1 osc_ck 0.00198825
2 *381:A 0
3 *9:17 0.00198825
4 *9:17 *338:A1 0.00047032
5 *9:17 *338:A3 9.65021e-05
6 *9:17 *84:20 6.86315e-06
7 *9:17 *89:18 2.46906e-05
8 *9:17 *124:16 0
9 *395:A *9:17 3.49463e-05
*RES
1 osc_ck *9:17 35.3864 
2 *9:17 *381:A 23 
*END

*D_NET *10 0.00115296
*CONN
*P osc_ena O
*I *402:X O *D sky130_fd_sc_hd__buf_2
*CAP
1 osc_ena 0.000162701
2 *402:X 0.000209161
3 *10:8 0.000371862
4 *10:8 *64:8 0
5 *10:8 *72:8 7.80612e-05
6 *10:8 *102:8 0.000138151
7 *10:8 *124:64 0
8 *396:A osc_ena 9.65101e-05
9 *7:15 osc_ena 9.65101e-05
*RES
1 *402:X *10:8 42.8989 
2 *10:8 osc_ena 8.9296 
*END

*D_NET *11 0.00130312
*CONN
*P otrip[0] I
*I *399:A I *D sky130_fd_sc_hd__dlymetal6s2s_1
*CAP
1 otrip[0] 0.000529644
2 *399:A 0.000529644
3 *399:A otrip_decoded[2] 0.000187129
4 *399:A *405:A 5.67058e-05
*RES
1 otrip[0] *399:A 49.8486 
*END

*D_NET *12 0.000872298
*CONN
*P otrip[1] I
*I *400:A I *D sky130_fd_sc_hd__dlymetal6s2s_1
*CAP
1 otrip[1] 0.000436149
2 *400:A 0.000436149
3 *400:A otrip_decoded[1] 0
4 *400:A *401:A 0
*RES
1 otrip[1] *400:A 47.4664 
*END

*D_NET *13 0.00120576
*CONN
*P otrip[2] I
*I *401:A I *D sky130_fd_sc_hd__dlymetal6s2s_1
*CAP
1 otrip[2] 0.000553637
2 *401:A 0.000553637
3 *401:A otrip_decoded[4] 0
4 *401:A *135:32 9.84851e-05
5 *400:A *401:A 0
*RES
1 otrip[2] *401:A 49.7036 
*END

*D_NET *14 0.00115869
*CONN
*P otrip_decoded[0] O
*I *403:X O *D sky130_fd_sc_hd__buf_2
*CAP
1 otrip_decoded[0] 0.000579343
2 *403:X 0.000579343
3 otrip_decoded[0] otrip_decoded[3] 0
*RES
1 *403:X otrip_decoded[0] 49.4343 
*END

*D_NET *15 0.00111537
*CONN
*P otrip_decoded[1] O
*I *404:X O *D sky130_fd_sc_hd__buf_2
*CAP
1 otrip_decoded[1] 0.00053165
2 *404:X 0.00053165
3 otrip_decoded[1] otrip_decoded[2] 0
4 otrip_decoded[1] *404:A 3.22879e-05
5 otrip_decoded[1] *135:14 1.97876e-05
6 *400:A otrip_decoded[1] 0
*RES
1 *404:X otrip_decoded[1] 48.0464 
*END

*D_NET *16 0.0012543
*CONN
*P otrip_decoded[2] O
*I *405:X O *D sky130_fd_sc_hd__buf_2
*CAP
1 otrip_decoded[2] 0.000533584
2 *405:X 0.000533584
3 otrip_decoded[1] otrip_decoded[2] 0
4 *399:A otrip_decoded[2] 0.000187129
*RES
1 *405:X otrip_decoded[2] 48.5229 
*END

*D_NET *17 0.00101151
*CONN
*P otrip_decoded[3] O
*I *406:X O *D sky130_fd_sc_hd__buf_2
*CAP
1 otrip_decoded[3] 0.000496015
2 *406:X 0.000496015
3 otrip_decoded[3] otrip_decoded[7] 0
4 otrip_decoded[3] *406:A 1.94812e-05
5 otrip_decoded[0] otrip_decoded[3] 0
*RES
1 *406:X otrip_decoded[3] 47.57 
*END

*D_NET *18 0.00157556
*CONN
*P otrip_decoded[4] O
*I *407:X O *D sky130_fd_sc_hd__buf_2
*CAP
1 otrip_decoded[4] 0.000121517
2 *407:X 0.000520401
3 *18:10 0.000641918
4 *18:10 otrip_decoded[6] 0.000222951
5 *18:10 *409:A 3.22879e-05
6 *18:10 *20:8 3.6485e-05
7 *401:A otrip_decoded[4] 0
*RES
1 *407:X *18:10 49.5482 
2 *18:10 otrip_decoded[4] 3.82179 
*END

*D_NET *19 0.00112898
*CONN
*P otrip_decoded[5] O
*I *408:X O *D sky130_fd_sc_hd__buf_2
*CAP
1 otrip_decoded[5] 0.000548345
2 *408:X 0.000548345
3 otrip_decoded[5] otrip_decoded[6] 0
4 otrip_decoded[5] otrip_decoded[7] 0
5 otrip_decoded[5] *408:A 3.22879e-05
*RES
1 *408:X otrip_decoded[5] 48.6679 
*END

*D_NET *20 0.00152239
*CONN
*P otrip_decoded[6] O
*I *409:X O *D sky130_fd_sc_hd__buf_2
*CAP
1 otrip_decoded[6] 0.000341336
2 *409:X 0.000219445
3 *20:8 0.000560781
4 otrip_decoded[6] *107:14 3.31127e-05
5 *20:8 *408:A 2.93845e-05
6 *20:8 *409:A 7.88926e-05
7 otrip_decoded[5] otrip_decoded[6] 0
8 *18:10 otrip_decoded[6] 0.000222951
9 *18:10 *20:8 3.6485e-05
*RES
1 *409:X *20:8 41.9564 
2 *20:8 otrip_decoded[6] 9.40429 
*END

*D_NET *21 0.00101354
*CONN
*P otrip_decoded[7] O
*I *410:X O *D sky130_fd_sc_hd__buf_2
*CAP
1 otrip_decoded[7] 0.000479372
2 *410:X 0.000479372
3 otrip_decoded[7] *406:A 5.47927e-05
4 otrip_decoded[3] otrip_decoded[7] 0
5 otrip_decoded[5] otrip_decoded[7] 0
*RES
1 *410:X otrip_decoded[7] 47.57 
*END

*D_NET *22 0.000681772
*CONN
*P outb_unbuf O
*I *411:X O *D sky130_fd_sc_hd__buf_2
*CAP
1 outb_unbuf 0.000274344
2 *411:X 0.000274344
3 outb_unbuf timed_out 0
4 outb_unbuf *309:A 9.33529e-06
5 outb_unbuf *309:B 0
6 outb_unbuf *112:8 3.55887e-05
7 *394:A outb_unbuf 4.40799e-05
8 *7:15 outb_unbuf 0
9 *8:15 outb_unbuf 4.40799e-05
*RES
1 *411:X outb_unbuf 48.3071 
*END

*D_NET *23 0.000636726
*CONN
*P timed_out O
*I *412:X O *D sky130_fd_sc_hd__buf_2
*CAP
1 timed_out 0.000293261
2 *412:X 0.000293261
3 timed_out *57:55 0
4 timed_out *95:27 6.12496e-06
5 outb_unbuf timed_out 0
6 *8:15 timed_out 4.40799e-05
*RES
1 *412:X timed_out 47.6028 
*END

*D_NET *24 0.00122808
*CONN
*P vtrip[0] I
*I *391:A I *D sky130_fd_sc_hd__dlymetal6s2s_1
*CAP
1 vtrip[0] 0.000614039
2 *391:A 0
3 *24:9 0.000614039
4 *24:9 vtrip_decoded[3] 0
*RES
1 vtrip[0] *24:9 27.6357 
2 *24:9 *391:A 23 
*END

*D_NET *25 0.00106708
*CONN
*P vtrip[1] I
*I *392:A I *D sky130_fd_sc_hd__dlymetal6s2s_1
*CAP
1 vtrip[1] 0.000533542
2 *392:A 0.000533542
3 *392:A *393:A 0
*RES
1 vtrip[1] *392:A 49.2064 
*END

*D_NET *26 0.00101576
*CONN
*P vtrip[2] I
*I *393:A I *D sky130_fd_sc_hd__dlymetal6s2s_1
*CAP
1 vtrip[2] 0.00050788
2 *393:A 0.00050788
3 *393:A vtrip_decoded[2] 0
4 *392:A *393:A 0
*RES
1 vtrip[2] *393:A 48.73 
*END

*D_NET *27 0.00104578
*CONN
*P vtrip_decoded[0] O
*I *413:X O *D sky130_fd_sc_hd__clkbuf_4
*CAP
1 vtrip_decoded[0] 0.000522889
2 *413:X 0.000522889
3 vtrip_decoded[0] vtrip_decoded[4] 0
4 vtrip_decoded[0] vtrip_decoded[6] 0
*RES
1 *413:X vtrip_decoded[0] 48.7921 
*END

*D_NET *28 0.00114091
*CONN
*P vtrip_decoded[1] O
*I *414:X O *D sky130_fd_sc_hd__clkbuf_4
*CAP
1 vtrip_decoded[1] 0.000570453
2 *414:X 0.000570453
3 vtrip_decoded[1] vtrip_decoded[2] 0
4 vtrip_decoded[1] vtrip_decoded[4] 0
*RES
1 *414:X vtrip_decoded[1] 48.9786 
*END

*D_NET *29 0.00168995
*CONN
*P vtrip_decoded[2] O
*I *415:X O *D sky130_fd_sc_hd__clkbuf_4
*CAP
1 vtrip_decoded[2] 0.000566374
2 *415:X 0.000216208
3 *29:8 0.000782582
4 vtrip_decoded[2] *101:8 4.58924e-05
5 vtrip_decoded[2] *115:10 0
6 *29:8 *101:12 7.88926e-05
7 vtrip_decoded[1] vtrip_decoded[2] 0
8 *393:A vtrip_decoded[2] 0
*RES
1 *415:X *29:8 41.0036 
2 *29:8 vtrip_decoded[2] 12.2214 
*END

*D_NET *30 0.001445
*CONN
*P vtrip_decoded[3] O
*I *416:X O *D sky130_fd_sc_hd__clkbuf_4
*CAP
1 vtrip_decoded[3] 0.000556942
2 *416:X 0.000105099
3 *30:8 0.000662041
4 vtrip_decoded[3] vtrip_decoded[7] 0
5 vtrip_decoded[3] *99:8 0
6 vtrip_decoded[3] *122:10 8.51329e-05
7 *30:8 *99:14 5.14746e-06
8 *30:8 *117:12 3.06338e-05
9 *24:9 vtrip_decoded[3] 0
*RES
1 *416:X *30:8 39.5743 
2 *30:8 vtrip_decoded[3] 12.2214 
*END

*D_NET *31 0.00115828
*CONN
*P vtrip_decoded[4] O
*I *417:X O *D sky130_fd_sc_hd__clkbuf_4
*CAP
1 vtrip_decoded[4] 0.00056445
2 *417:X 0.00056445
3 vtrip_decoded[4] *417:A 2.93845e-05
4 vtrip_decoded[0] vtrip_decoded[4] 0
5 vtrip_decoded[1] vtrip_decoded[4] 0
*RES
1 *417:X vtrip_decoded[4] 48.9786 
*END

*D_NET *32 0.00113514
*CONN
*P vtrip_decoded[5] O
*I *418:X O *D sky130_fd_sc_hd__clkbuf_4
*CAP
1 vtrip_decoded[5] 0.000567569
2 *418:X 0.000567569
3 vtrip_decoded[5] vtrip_decoded[6] 0
4 vtrip_decoded[5] vtrip_decoded[7] 0
*RES
1 *418:X vtrip_decoded[5] 48.9786 
*END

*D_NET *33 0.000988696
*CONN
*P vtrip_decoded[6] O
*I *419:X O *D sky130_fd_sc_hd__clkbuf_4
*CAP
1 vtrip_decoded[6] 0.000494348
2 *419:X 0.000494348
3 vtrip_decoded[0] vtrip_decoded[6] 0
4 vtrip_decoded[5] vtrip_decoded[6] 0
*RES
1 *419:X vtrip_decoded[6] 48.0257 
*END

*D_NET *34 0.00104903
*CONN
*P vtrip_decoded[7] O
*I *420:X O *D sky130_fd_sc_hd__clkbuf_4
*CAP
1 vtrip_decoded[7] 0.000524517
2 *420:X 0.000524517
3 vtrip_decoded[3] vtrip_decoded[7] 0
4 vtrip_decoded[5] vtrip_decoded[7] 0
*RES
1 *420:X vtrip_decoded[7] 48.5021 
*END

*D_NET *35 0.000296302
*CONN
*I *377:RESET_B I *D sky130_fd_sc_hd__dfrtp_1
*I *302:Y O *D sky130_fd_sc_hd__inv_2
*CAP
1 *377:RESET_B 0
2 *302:Y 0.000148151
3 *35:8 0.000148151
4 *35:8 *377:CLK 0
5 *35:8 *126:8 0
*RES
1 *302:Y *35:8 40.61 
2 *35:8 *377:RESET_B 15 
*END

*D_NET *36 0.000176484
*CONN
*I *379:RESET_B I *D sky130_fd_sc_hd__dfrtp_1
*I *362:Y O *D sky130_fd_sc_hd__inv_2
*CAP
1 *379:RESET_B 0
2 *362:Y 8.82422e-05
3 *36:8 8.82422e-05
4 *36:8 *79:12 0
5 *36:8 *126:8 0
*RES
1 *362:Y *36:8 39.5536 
2 *36:8 *379:RESET_B 15 
*END

*D_NET *37 0.00101502
*CONN
*I *363:D I *D sky130_fd_sc_hd__dfstp_1
*I *332:Y O *D sky130_fd_sc_hd__a21oi_1
*CAP
1 *363:D 0
2 *332:Y 0.0004927
3 *37:14 0.0004927
4 *37:14 *332:A2 0
5 *37:14 *332:B1 2.9624e-05
*RES
1 *332:Y *37:14 46.0371 
2 *37:14 *363:D 38 
*END

*D_NET *38 0.000790353
*CONN
*I *364:D I *D sky130_fd_sc_hd__dfstp_1
*I *335:Y O *D sky130_fd_sc_hd__a21oi_1
*CAP
1 *364:D 0
2 *335:Y 0.000318599
3 *38:10 0.000318599
4 *38:10 *335:B1 0
5 *38:10 *120:6 0.000153155
*RES
1 *335:Y *38:10 44.3179 
2 *38:10 *364:D 38 
*END

*D_NET *39 0.00148411
*CONN
*I *365:D I *D sky130_fd_sc_hd__dfstp_1
*I *337:Y O *D sky130_fd_sc_hd__a21oi_1
*CAP
1 *365:D 0
2 *337:Y 0.000492868
3 *39:10 0.000492868
4 *39:10 *303:B 1.34995e-05
5 *39:10 *336:B 6.13873e-07
6 *39:10 *337:B1 0.000484261
7 *39:10 *74:10 0
8 *39:10 *80:32 0
*RES
1 *337:Y *39:10 45.8041 
2 *39:10 *365:D 38 
*END

*D_NET *40 0.00071241
*CONN
*I *366:D I *D sky130_fd_sc_hd__dfstp_1
*I *340:Y O *D sky130_fd_sc_hd__a21oi_1
*CAP
1 *366:D 0
2 *340:Y 0.000242902
3 *40:10 0.000242902
4 *40:10 *332:A1 9.24795e-06
5 *40:10 *332:A2 1.21972e-05
6 *40:10 *332:B1 1.24376e-05
7 *40:10 *340:A1 1.5769e-05
8 *40:10 *340:A2 0.000176954
*RES
1 *340:Y *40:10 27.5986 
2 *40:10 *366:D 23 
*END

*D_NET *41 0.000359279
*CONN
*I *367:D I *D sky130_fd_sc_hd__dfstp_1
*I *343:Y O *D sky130_fd_sc_hd__a21oi_1
*CAP
1 *367:D 0
2 *343:Y 0.000102734
3 *41:10 0.000102734
4 *41:10 *73:35 0.000138708
5 *41:10 *79:65 0
6 *41:10 *123:37 1.51028e-05
*RES
1 *343:Y *41:10 40.0818 
2 *41:10 *367:D 38 
*END

*D_NET *42 0.000753283
*CONN
*I *368:D I *D sky130_fd_sc_hd__dfstp_1
*I *345:Y O *D sky130_fd_sc_hd__a21oi_1
*CAP
1 *368:D 3.77894e-05
2 *345:Y 0.000207152
3 *42:10 0.000244942
4 *42:10 *345:A1 6.16439e-05
5 *42:10 *369:CLK 5.3304e-05
6 *42:10 *52:10 8.68081e-05
7 *42:10 *79:12 0
8 *42:10 *123:24 6.16439e-05
*RES
1 *345:Y *42:10 41.9357 
2 *42:10 *368:D 38.6214 
*END

*D_NET *43 0.000625679
*CONN
*I *369:D I *D sky130_fd_sc_hd__dfstp_1
*I *348:Y O *D sky130_fd_sc_hd__a21oi_1
*CAP
1 *369:D 1.99646e-05
2 *348:Y 0.000170559
3 *43:10 0.000190523
4 *369:D *90:26 2.93431e-05
5 *369:D *124:38 1.92253e-05
6 *43:10 *53:10 3.21668e-05
7 *43:10 *67:25 1.80023e-05
8 *43:10 *90:26 4.81544e-05
9 *43:10 *123:14 9.77405e-05
*RES
1 *348:Y *43:10 41.0036 
2 *43:10 *369:D 38.6214 
*END

*D_NET *44 0.000863232
*CONN
*I *370:D I *D sky130_fd_sc_hd__dfstp_1
*I *350:Y O *D sky130_fd_sc_hd__a21oi_1
*CAP
1 *370:D 0
2 *350:Y 0.000281616
3 *44:10 0.000281616
4 *44:10 *370:CLK 0.000141869
5 *44:10 *380:CLK 7.88828e-05
6 *44:10 *45:16 7.92477e-05
7 *44:10 *124:64 0
*RES
1 *350:Y *44:10 43.2614 
2 *44:10 *370:D 38 
*END

*D_NET *45 0.00104586
*CONN
*I *371:D I *D sky130_fd_sc_hd__dfstp_1
*I *352:Y O *D sky130_fd_sc_hd__a21oi_1
*CAP
1 *371:D 0
2 *352:Y 0.000350953
3 *45:16 0.000350953
4 *45:16 *350:A1 1.32939e-05
5 *45:16 *350:A2 5.67058e-05
6 *45:16 *371:SET_B 6.48142e-05
7 *45:16 *380:CLK 5.70419e-05
8 *45:16 *80:60 7.28526e-05
9 *45:16 *123:98 0
10 *44:10 *45:16 7.92477e-05
*RES
1 *352:Y *45:16 46.1821 
2 *45:16 *371:D 38 
*END

*D_NET *46 0.00189553
*CONN
*I *372:D I *D sky130_fd_sc_hd__dfstp_1
*I *355:X O *D sky130_fd_sc_hd__o21a_1
*CAP
1 *372:D 0
2 *355:X 0.000621606
3 *46:10 0.000621606
4 *46:10 *57:27 0.000317553
5 *46:10 *57:38 0.000271476
6 *46:10 *57:55 6.32895e-05
7 *46:10 *80:32 0
8 *46:10 *120:38 0
*RES
1 *355:X *46:10 48.15 
2 *46:10 *372:D 38 
*END

*D_NET *47 0.000615573
*CONN
*I *373:D I *D sky130_fd_sc_hd__dfstp_1
*I *358:X O *D sky130_fd_sc_hd__a22o_1
*CAP
1 *373:D 1.39194e-05
2 *358:X 0.000161601
3 *47:10 0.00017552
4 *373:D *373:SET_B 5.67058e-05
5 *373:D *71:12 2.93747e-05
6 *47:10 *358:A2 4.10817e-05
7 *47:10 *59:8 6.09861e-06
8 *47:10 *113:31 6.4393e-05
9 *47:10 *133:10 6.68793e-05
*RES
1 *358:X *47:10 41.0036 
2 *47:10 *373:D 38.6214 
*END

*D_NET *48 0.000500217
*CONN
*I *374:D I *D sky130_fd_sc_hd__dfstp_1
*I *361:X O *D sky130_fd_sc_hd__o31a_1
*CAP
1 *374:D 0.0001276
2 *361:X 0.0001276
3 *374:D *358:B2 9.41704e-05
4 *374:D *80:32 0.000136738
5 *374:D *86:8 1.41077e-05
*RES
1 *361:X *374:D 48.5271 
*END

*D_NET *49 0.00242897
*CONN
*I *340:A2 I *D sky130_fd_sc_hd__a21oi_1
*I *339:Y O *D sky130_fd_sc_hd__nand2b_1
*CAP
1 *340:A2 0.000472659
2 *339:Y 0.000328756
3 *49:10 0.000801415
4 *340:A2 *332:A1 9.75779e-05
5 *340:A2 *332:A2 0
6 *340:A2 *332:B1 4.00259e-06
7 *340:A2 *366:SET_B 0.000105304
8 *340:A2 *89:18 0.000100543
9 *49:10 *341:A 0.000146822
10 *49:10 *66:10 0.000133366
11 *49:10 *77:8 0
12 *49:10 *89:31 6.15719e-05
13 *40:10 *340:A2 0.000176954
*RES
1 *339:Y *49:10 44.2971 
2 *49:10 *340:A2 48.5021 
*END

*D_NET *50 0.00196216
*CONN
*I *342:B I *D sky130_fd_sc_hd__or2_1
*I *341:Y O *D sky130_fd_sc_hd__nor2_1
*CAP
1 *342:B 0.000232467
2 *341:Y 0.000108532
3 *50:8 0.000340999
4 *342:B *305:A 5.3304e-05
5 *342:B *307:A 0.000475297
6 *342:B *308:D 9.45591e-05
7 *342:B *342:A 7.67439e-05
8 *342:B *66:39 5.56279e-05
9 *342:B *67:17 9.14874e-05
10 *342:B *81:18 0.000369782
11 *50:8 *78:12 0
12 *50:8 *123:14 6.33614e-05
*RES
1 *341:Y *50:8 39.9057 
2 *50:8 *342:B 46.7414 
*END

*D_NET *51 0.001066
*CONN
*I *343:A2 I *D sky130_fd_sc_hd__a21oi_1
*I *342:X O *D sky130_fd_sc_hd__or2_1
*CAP
1 *343:A2 0
2 *342:X 0.000280357
3 *51:10 0.000280357
4 *51:10 *73:35 0.000344915
5 *51:10 *73:46 4.6318e-06
6 *51:10 *79:78 0.000138727
7 *51:10 *81:18 1.7009e-05
8 *51:10 *124:16 0
9 *51:10 *124:22 0
*RES
1 *342:X *51:10 44.2971 
2 *51:10 *343:A2 38 
*END

*D_NET *52 0.00109964
*CONN
*I *345:A2 I *D sky130_fd_sc_hd__a21oi_1
*I *344:Y O *D sky130_fd_sc_hd__xnor2_1
*CAP
1 *345:A2 0
2 *344:Y 0.000385079
3 *52:10 0.000385079
4 *52:10 *345:A1 1.14452e-05
5 *52:10 *377:CLK 0
6 *52:10 *83:10 0.000231229
7 *52:10 *124:22 0
8 *42:10 *52:10 8.68081e-05
*RES
1 *344:Y *52:10 45.25 
2 *52:10 *345:A2 38 
*END

*D_NET *53 0.000902111
*CONN
*I *347:B I *D sky130_fd_sc_hd__nand2_1
*I *346:X O *D sky130_fd_sc_hd__a31o_1
*CAP
1 *347:B 3.93866e-05
2 *346:X 0.000221898
3 *53:10 0.000261285
4 *53:10 *54:12 0.000291747
5 *53:10 *67:25 0
6 *53:10 *123:14 5.56279e-05
7 *43:10 *53:10 3.21668e-05
*RES
1 *346:X *53:10 42.64 
2 *53:10 *347:B 38.8493 
*END

*D_NET *54 0.00117655
*CONN
*I *348:A2 I *D sky130_fd_sc_hd__a21oi_1
*I *347:Y O *D sky130_fd_sc_hd__nand2_1
*CAP
1 *348:A2 4.09009e-05
2 *347:Y 0.000199476
3 *54:12 0.000240377
4 *348:A2 *78:12 5.40241e-05
5 *348:A2 *123:14 0.000113492
6 *54:12 *90:26 0.000130028
7 *54:12 *91:23 0.000106506
8 *53:10 *54:12 0.000291747
*RES
1 *347:Y *54:12 43.4893 
2 *54:12 *348:A2 39.595 
*END

*D_NET *55 0.000397619
*CONN
*I *350:A2 I *D sky130_fd_sc_hd__a21oi_1
*I *349:X O *D sky130_fd_sc_hd__xor2_1
*CAP
1 *350:A2 0.000102163
2 *349:X 0.000102163
3 *350:A2 *352:A2 5.67058e-05
4 *350:A2 *352:B1 3.22879e-05
5 *350:A2 *73:14 2.9938e-05
6 *350:A2 *73:16 1.76557e-05
7 *45:16 *350:A2 5.67058e-05
*RES
1 *349:X *350:A2 49.0243 
*END

*D_NET *56 0.000775261
*CONN
*I *352:A2 I *D sky130_fd_sc_hd__a21oi_1
*I *351:Y O *D sky130_fd_sc_hd__xnor2_1
*CAP
1 *352:A2 3.18614e-05
2 *351:Y 0.000276136
3 *56:8 0.000307998
4 *352:A2 *73:16 3.22879e-05
5 *56:8 *69:8 0
6 *56:8 *73:10 0
7 *56:8 *78:12 0
8 *56:8 *94:10 3.56537e-05
9 *56:8 *129:18 3.46181e-05
10 *350:A2 *352:A2 5.67058e-05
*RES
1 *351:Y *56:8 42.7229 
2 *56:8 *352:A2 39.1186 
*END

*D_NET *57 0.00469332
*CONN
*I *357:A2 I *D sky130_fd_sc_hd__a21oi_1
*I *356:A2 I *D sky130_fd_sc_hd__a21o_1
*I *354:B I *D sky130_fd_sc_hd__xor2_1
*I *360:A2 I *D sky130_fd_sc_hd__a21boi_1
*I *359:C I *D sky130_fd_sc_hd__and3b_1
*I *353:X O *D sky130_fd_sc_hd__a21o_1
*CAP
1 *357:A2 0
2 *356:A2 0
3 *354:B 0
4 *360:A2 2.34823e-05
5 *359:C 0
6 *353:X 0.000221068
7 *57:55 0.000417208
8 *57:38 0.00053619
9 *57:27 0.000204567
10 *57:20 0.000329852
11 *57:12 0.000285562
12 *57:8 0.000238881
13 *360:A2 *354:A 0
14 *360:A2 *71:31 0
15 *57:8 *310:B 7.80354e-05
16 *57:8 *353:A1 4.6318e-06
17 *57:8 *80:32 0.000215782
18 *57:8 *123:120 0
19 *57:12 *357:A1 5.50049e-05
20 *57:12 *359:A_N 6.17437e-06
21 *57:12 *60:10 1.03836e-05
22 *57:20 *337:B1 3.91386e-05
23 *57:20 *357:A1 0.000313343
24 *57:20 *60:10 4.06849e-05
25 *57:27 *357:A1 5.67058e-05
26 *57:27 *360:A1 0.000274078
27 *57:38 *354:A 4.9889e-05
28 *57:55 *354:A 5.12254e-05
29 *57:55 *355:A2 0.0002263
30 *57:55 *356:B1 1.14452e-05
31 *57:55 *63:38 6.8743e-05
32 *57:55 *95:27 0.000186142
33 *57:55 *113:81 4.68153e-05
34 *57:55 *133:10 4.96717e-05
35 timed_out *57:55 0
36 *46:10 *57:27 0.000317553
37 *46:10 *57:38 0.000271476
38 *46:10 *57:55 6.32895e-05
*RES
1 *353:X *57:8 43.075 
2 *57:8 *57:12 15.6214 
3 *57:12 *57:20 5.92429 
4 *57:20 *359:C 23 
5 *57:20 *57:27 3.95643 
6 *57:27 *360:A2 23.4971 
7 *57:27 *57:38 3.85286 
8 *57:38 *354:B 23 
9 *57:38 *57:55 38.8657 
10 *57:55 *356:A2 23 
11 *57:12 *357:A2 23 
*END

*D_NET *58 0.000549273
*CONN
*I *355:A2 I *D sky130_fd_sc_hd__o21a_1
*I *354:X O *D sky130_fd_sc_hd__xor2_1
*CAP
1 *355:A2 4.8336e-05
2 *354:X 4.8336e-05
3 *355:A2 *95:27 0.0002263
4 *57:55 *355:A2 0.0002263
*RES
1 *354:X *355:A2 48.5271 
*END

*D_NET *59 0.000845317
*CONN
*I *358:B1 I *D sky130_fd_sc_hd__a22o_1
*I *356:X O *D sky130_fd_sc_hd__a21o_1
*CAP
1 *358:B1 0
2 *356:X 0.000179487
3 *59:8 0.000179487
4 *59:8 *358:A2 7.67422e-05
5 *59:8 *358:B2 5.90675e-06
6 *59:8 *361:B1 0
7 *59:8 *133:10 0.000397596
8 *47:10 *59:8 6.09861e-06
*RES
1 *356:X *59:8 27.93 
2 *59:8 *358:B1 23 
*END

*D_NET *60 0.00193927
*CONN
*I *358:B2 I *D sky130_fd_sc_hd__a22o_1
*I *357:Y O *D sky130_fd_sc_hd__a21oi_1
*CAP
1 *358:B2 0.000270672
2 *357:Y 0.000353321
3 *60:10 0.000623993
4 *358:B2 *361:A2 3.52383e-05
5 *358:B2 *361:B1 4.65917e-05
6 *60:10 *310:B 0.000114083
7 *60:10 *337:B1 2.45549e-06
8 *60:10 *359:A_N 9.41704e-05
9 *60:10 *360:B1_N 4.08664e-05
10 *60:10 *71:16 6.32688e-05
11 *60:10 *80:24 5.94125e-05
12 *60:10 *86:23 8.4047e-05
13 *374:D *358:B2 9.41704e-05
14 *57:12 *60:10 1.03836e-05
15 *57:20 *60:10 4.06849e-05
16 *59:8 *358:B2 5.90675e-06
*RES
1 *357:Y *60:10 44.09 
2 *60:10 *358:B2 42.93 
*END

*D_NET *61 0.000500569
*CONN
*I *361:A2 I *D sky130_fd_sc_hd__o31a_1
*I *359:X O *D sky130_fd_sc_hd__and3b_1
*CAP
1 *361:A2 6.79597e-05
2 *359:X 4.55509e-05
3 *61:8 0.000113511
4 *61:8 *71:16 0.000114074
5 *61:8 *71:31 1.01436e-05
6 *61:8 *113:21 0.000114092
7 *358:B2 *361:A2 3.52383e-05
*RES
1 *359:X *61:8 39.5536 
2 *61:8 *361:A2 39.0979 
*END

*D_NET *62 0.000205545
*CONN
*I *361:A3 I *D sky130_fd_sc_hd__o31a_1
*I *360:Y O *D sky130_fd_sc_hd__a21boi_1
*CAP
1 *361:A3 0
2 *360:Y 7.49571e-05
3 *62:8 7.49571e-05
4 *62:8 *113:21 5.56306e-05
5 *62:8 *120:38 0
*RES
1 *360:Y *62:8 39.5536 
2 *62:8 *361:A3 38 
*END

*D_NET *63 0.00208102
*CONN
*I *355:B1 I *D sky130_fd_sc_hd__o21a_1
*I *358:A1 I *D sky130_fd_sc_hd__a22o_1
*I *361:B1 I *D sky130_fd_sc_hd__o31a_1
*I *300:Y O *D sky130_fd_sc_hd__inv_2
*CAP
1 *355:B1 0
2 *358:A1 0
3 *361:B1 0.000224338
4 *300:Y 0
5 *63:38 0.00025552
6 *63:25 5.55377e-05
7 *63:6 0.000438622
8 *63:4 0.000414267
9 *361:B1 *133:10 5.3304e-05
10 *63:6 *133:10 0.000213869
11 *63:25 *113:25 2.11887e-05
12 *63:25 *113:31 1.44546e-05
13 *63:25 *120:38 1.12487e-05
14 *63:25 *133:10 8.94394e-05
15 *63:38 *95:10 0
16 *63:38 *133:10 0.000173898
17 *358:B2 *361:B1 4.65917e-05
18 *57:55 *63:38 6.8743e-05
19 *59:8 *361:B1 0
*RES
1 *300:Y *63:4 23 
2 *63:4 *63:6 2.52714 
3 *63:6 *361:B1 27.0186 
4 *63:6 *63:25 31.5536 
5 *63:25 *358:A1 23 
6 *63:4 *63:38 34.3086 
7 *63:38 *355:B1 23 
*END

*D_NET *64 0.000279299
*CONN
*I *329:A2 I *D sky130_fd_sc_hd__a31o_1
*I *301:Y O *D sky130_fd_sc_hd__inv_2
*CAP
1 *329:A2 0
2 *301:Y 0.000125699
3 *64:8 0.000125699
4 *64:8 *102:8 2.79004e-05
5 *64:8 *124:64 0
6 *10:8 *64:8 0
*RES
1 *301:Y *64:8 39.9057 
2 *64:8 *329:A2 38 
*END

*D_NET *65 0.00112977
*CONN
*I *334:A I *D sky130_fd_sc_hd__nand2_1
*I *336:B I *D sky130_fd_sc_hd__xor2_1
*I *303:Y O *D sky130_fd_sc_hd__nand2_1
*CAP
1 *334:A 5.09528e-05
2 *336:B 0.000261589
3 *303:Y 0
4 *65:4 0.000312542
5 *334:A *303:B 2.1136e-05
6 *334:A *334:B 2.02517e-05
7 *334:A *337:B1 2.4754e-05
8 *334:A *75:10 4.79641e-05
9 *334:A *87:39 5.50106e-05
10 *336:B *303:B 9.77405e-05
11 *336:B *336:A 4.67488e-05
12 *336:B *337:A1 1.74129e-05
13 *336:B *337:A2 5.79559e-05
14 *336:B *337:B1 8.48502e-06
15 *336:B *75:10 5.3304e-05
16 *336:B *87:8 5.3304e-05
17 *39:10 *336:B 6.13873e-07
*RES
1 *303:Y *65:4 23 
2 *65:4 *336:B 27.93 
3 *65:4 *334:A 25.0921 
*END

*D_NET *66 0.00480307
*CONN
*I *341:B I *D sky130_fd_sc_hd__nor2_1
*I *339:A_N I *D sky130_fd_sc_hd__nand2b_1