* NGSPICE file created from brownout_ana_rcx.ext - technology: sky130A

*.subckt brownout_ana_rcx otrip_decoded[1] otrip_decoded[0] vin_vunder ena ibg_200n
*+ itest vtrip_decoded[6] vtrip_decoded[5] vtrip_decoded[4] vtrip_decoded[3] vtrip_decoded[2]
*+ vtrip_decoded[0] osc_ck outb otrip_decoded[7] vunder otrip_decoded[4] isrc_sel otrip_decoded[5]
*+ otrip_decoded[2] vbg_1v2 vin_brout brout_filt dcomp outb_unbuf vtrip_decoded[7]
*+ vtrip_decoded[1] otrip_decoded[3] otrip_decoded[6] avss dvdd dvss avdd osc_ena

.subckt brownout_ana vin_brout otrip_decoded[7] otrip_decoded[6] otrip_decoded[5] otrip_decoded[4] otrip_decoded[3]
+ otrip_decoded[2] otrip_decoded[1] otrip_decoded[0] vin_vunder vbg_1v2 ena avdd ibg_200n itest avss dvdd isrc_sel dvss vtrip_decoded[7]
+ vtrip_decoded[6] vtrip_decoded[5] vtrip_decoded[4] vtrip_decoded[3] vtrip_decoded[2] vtrip_decoded[1] vtrip_decoded[0] dcomp brout_filt osc_ck
+ osc_ena vunder outb outb_unbuf

X0 a_8447_n11914# a_8069_n19314# avss.t101 sky130_fd_pr__res_xhigh_po_1p41 l=35
X1 avss.t357 comparator_1.n1 dcomp3v3 avss.t356 sky130_fd_pr__nfet_g5v0d10v5 ad=0.29 pd=2.58 as=0.145 ps=1.29 w=1 l=0.6
X2 comparator_1.vt avss.t366 comparator_1.vnn comparator_1.vt sky130_fd_pr__nfet_g5v0d10v5 ad=0.29 pd=2.58 as=0.145 ps=1.29 w=1 l=8
X3 a_n15745_n11914# a_n16123_n19314# avss.t99 sky130_fd_pr__res_xhigh_po_1p41 l=35
X4 rstring_mux_0.vtrip4.t4 rstring_mux_0.vtrip_decoded_avdd[4] vin_vunder.t23 avss.t219 sky130_fd_pr__nfet_g5v0d10v5 ad=0.725 pd=5.29 as=0.725 ps=5.29 w=5 l=0.6
X5 avdd.t601 comparator_1.n1 dcomp3v3 avdd.t600 sky130_fd_pr__pfet_g5v0d10v5 ad=0.145 pd=1.29 as=0.145 ps=1.29 w=1 l=0.6
X6 dvdd.t277 sky130_fd_sc_hd__inv_4_1.Y vunder.t2 dvdd.t276 sky130_fd_pr__pfet_01v8_hvt ad=0.135 pd=1.27 as=0.135 ps=1.27 w=1 l=0.15
X7 rstring_mux_0.vtrip_decoded_b_avdd[7] rstring_mux_0.vtrip_decoded_avdd[7] avss.t308 avss.t307 sky130_fd_pr__nfet_g5v0d10v5 ad=0.21375 pd=2.07 as=0.21375 ps=2.07 w=0.75 l=0.5
X8 dvdd.t126 dvdd.t124 osc_ck.t4 dvdd.t125 sky130_fd_pr__pfet_01v8 ad=0.1475 pd=1.295 as=0.15 ps=1.3 w=1 l=0.18
X9 a_5346_n3990# a_4921_n3946# dvss.t651 dvss.t650 sky130_fd_pr__nfet_g5v0d10v5 ad=0.21 pd=1.78 as=0.3975 ps=3.53 w=1.5 l=0.5
X10 rc_osc_0.n.t0 dvdd.t122 rc_osc_0.m dvdd.t123 sky130_fd_pr__pfet_01v8 ad=0.145 pd=1.29 as=0.145 ps=1.29 w=1 l=0.5
X11 dvdd.t39 sky130_fd_sc_hd__inv_4_0.Y brout_filt.t15 dvdd.t38 sky130_fd_pr__pfet_01v8_hvt ad=0.135 pd=1.27 as=0.135 ps=1.27 w=1 l=0.15
X12 avdd.t115 a_429_n2876# a_1122_n3990# avdd.t114 sky130_fd_pr__pfet_g5v0d10v5 ad=0.1113 pd=1.37 as=0.1365 ps=1.49 w=0.42 l=1
X13 rstring_mux_0.vtop.t17 a_n16123_n19314# avss.t185 sky130_fd_pr__res_xhigh_po_1p41 l=35
X14 comparator_0.vn comparator_0.ena comparator_0.ibias avss.t302 sky130_fd_pr__nfet_g5v0d10v5 ad=0.29 pd=2.58 as=0.29 ps=2.58 w=1 l=1
X15 avss.t97 avss.t96 avss.t97 avss.t5 sky130_fd_pr__nfet_g5v0d10v5 ad=0.725 pd=5.29 as=0 ps=0 w=5 l=8
X16 dvss.t51 otrip_decoded[0].t0 a_n8119_n2964# dvss.t50 sky130_fd_pr__nfet_01v8 ad=0.1176 pd=1.12 as=0.2478 ps=2.27 w=0.84 l=0.15
X17 comparator_1.vpp comparator_0.ena avdd.t562 avdd.t561 sky130_fd_pr__pfet_g5v0d10v5 ad=0.29 pd=2.58 as=0.29 ps=2.58 w=1 l=1
X18 comparator_1.n0 comparator_1.vpp avdd.t481 avdd.t133 sky130_fd_pr__pfet_g5v0d10v5 ad=0.145 pd=1.29 as=0.145 ps=1.29 w=1 l=8
X19 dvss.t354 a_7033_n3946# a_7458_n3990# dvss.t353 sky130_fd_pr__nfet_g5v0d10v5 ad=0.21 pd=1.78 as=0.21 ps=1.78 w=1.5 l=0.5
X20 rstring_mux_0.otrip_decoded_b_avdd[1] rstring_mux_0.otrip_decoded_avdd[1] avss.t190 avss.t189 sky130_fd_pr__nfet_g5v0d10v5 ad=0.21375 pd=2.07 as=0.21375 ps=2.07 w=0.75 l=0.5
X21 vin_brout avdd.t400 vin_brout avdd.t401 sky130_fd_pr__pfet_g5v0d10v5 ad=0.725 pd=5.29 as=23.2 ps=169.28 w=5 l=0.6
X22 comparator_1.vt vin_brout comparator_1.vnn comparator_1.vt sky130_fd_pr__nfet_g5v0d10v5 ad=0.145 pd=1.29 as=0.145 ps=1.29 w=1 l=8
X23 comparator_1.vpp comparator_1.vnn avdd.t150 avdd.t123 sky130_fd_pr__pfet_g5v0d10v5 ad=0.145 pd=1.29 as=0.145 ps=1.29 w=1 l=8
X24 dcomp.t15 sky130_fd_sc_hd__inv_4_3.Y dvdd.t321 dvdd.t320 sky130_fd_pr__pfet_01v8_hvt ad=0.135 pd=1.27 as=0.26 ps=2.52 w=1 l=0.15
X25 dvdd.t81 schmitt_trigger_0.in.t1 schmitt_trigger_0.m.t5 dvdd.t80 sky130_fd_pr__pfet_01v8 ad=0.145 pd=1.29 as=0.145 ps=1.29 w=1 l=0.5
X26 comparator_0.vnn vin_vunder.t48 comparator_0.vt comparator_0.vt sky130_fd_pr__nfet_g5v0d10v5 ad=0.145 pd=1.29 as=0.145 ps=1.29 w=1 l=8
X27 a_3155_n11914# a_3533_n19314# avss.t215 sky130_fd_pr__res_xhigh_po_1p41 l=35
X28 a_n11209_n11914# a_n10831_n19314# avss.t167 sky130_fd_pr__res_xhigh_po_1p41 l=35
X29 comparator_1.vpp vbg_1v2.t0 comparator_1.vt comparator_1.vt sky130_fd_pr__nfet_g5v0d10v5 ad=0.145 pd=1.29 as=0.145 ps=1.29 w=1 l=8
X30 rstring_mux_0.otrip_decoded_avdd[5] a_n2588_n1478# avdd.t576 avdd.t454 sky130_fd_pr__pfet_g5v0d10v5 ad=0.3975 pd=3.53 as=0.24375 ps=1.825 w=1.5 l=0.5
X31 dvdd.t7 a_10873_n2760# a_10873_n3956# dvdd.t6 sky130_fd_pr__pfet_01v8_hvt ad=0.2968 pd=2.77 as=0.2968 ps=2.77 w=1.12 l=0.15
X32 a_7458_n3990# a_7033_n3946# dvss.t352 dvss.t351 sky130_fd_pr__nfet_g5v0d10v5 ad=0.21 pd=1.78 as=0.3975 ps=3.53 w=1.5 l=0.5
X33 comparator_1.vpp comparator_1.vnn avdd.t149 avdd.t123 sky130_fd_pr__pfet_g5v0d10v5 ad=0.145 pd=1.29 as=0.145 ps=1.29 w=1 l=8
X34 ibias_gen_0.vr.t3 ibias_gen_0.vn0.t19 ibias_gen_0.vp0.t2 avss.t14 sky130_fd_pr__nfet_g5v0d10v5 ad=0.725 pd=5.29 as=0.725 ps=5.29 w=5 l=4
X35 avdd.t57 a_2541_n2876# a_3234_n3990# avdd.t56 sky130_fd_pr__pfet_g5v0d10v5 ad=0.1113 pd=1.37 as=0.1365 ps=1.49 w=0.42 l=1
X36 comparator_0.vpp comparator_0.vnn avdd.t204 avdd.t33 sky130_fd_pr__pfet_g5v0d10v5 ad=0.145 pd=1.29 as=0.145 ps=1.29 w=1 l=8
X37 a_n26830_n2937# a_n27208_n10337# avss.t108 sky130_fd_pr__res_xhigh_po_1p41 l=35
X38 dvdd.t166 sky130_fd_sc_hd__inv_4_4.Y outb.t15 dvdd.t165 sky130_fd_pr__pfet_01v8_hvt ad=0.26 pd=2.52 as=0.135 ps=1.27 w=1 l=0.15
X39 dvss.t158 a_9145_n3946# a_9570_n3990# dvss.t157 sky130_fd_pr__nfet_g5v0d10v5 ad=0.21 pd=1.78 as=0.21 ps=1.78 w=1.5 l=0.5
X40 comparator_0.vt vin_vunder.t49 comparator_0.vnn comparator_0.vt sky130_fd_pr__nfet_g5v0d10v5 ad=0.145 pd=1.29 as=0.145 ps=1.29 w=1 l=8
X41 rstring_mux_0.vtrip_decoded_avdd[0] a_1636_n3212# dvss.t597 dvss.t596 sky130_fd_pr__nfet_g5v0d10v5 ad=0.19875 pd=2.03 as=0.121875 ps=1.075 w=0.75 l=0.5
X42 dvss.t15 a_6765_n2876# a_7972_n3212# dvss.t14 sky130_fd_pr__nfet_g5v0d10v5 ad=0.121875 pd=1.075 as=0.19875 ps=2.03 w=0.75 l=0.5
X43 avdd.t575 ibias_gen_0.isrc_sel ibias_gen_0.isrc_sel_b avdd.t574 sky130_fd_pr__pfet_g5v0d10v5 ad=1.45 pd=10.58 as=0.725 ps=5.29 w=5 l=1
X44 a_n8951_9395# a_n8573_1995# avss.t100 sky130_fd_pr__res_xhigh_po_1p41 l=35
X45 itest.t1 ibias_gen_0.vp.t7 avdd.t91 avdd.t90 sky130_fd_pr__pfet_g5v0d10v5 ad=0.725 pd=5.29 as=0.725 ps=5.29 w=5 l=4
X46 vin_vunder.t43 avdd.t398 vin_vunder.t43 avdd.t399 sky130_fd_pr__pfet_g5v0d10v5 ad=0.725 pd=5.29 as=0 ps=0 w=5 l=0.6
X47 comparator_1.vt vbg_1v2.t1 comparator_1.vpp comparator_1.vt sky130_fd_pr__nfet_g5v0d10v5 ad=0.145 pd=1.29 as=0.145 ps=1.29 w=1 l=8
X48 rstring_mux_0.vtrip7.t1 a_n247_n19314# avss.t119 sky130_fd_pr__res_xhigh_po_1p41 l=35
X49 dvss.t93 sky130_fd_sc_hd__inv_4_0.Y brout_filt.t31 dvss.t92 sky130_fd_pr__nfet_01v8 ad=0.08775 pd=0.92 as=0.08775 ps=0.92 w=0.65 l=0.15
X50 comparator_1.vt vbg_1v2.t2 comparator_1.vpp comparator_1.vt sky130_fd_pr__nfet_g5v0d10v5 ad=0.145 pd=1.29 as=0.145 ps=1.29 w=1 l=8
X51 a_n24562_n2937# a_n24184_n10337# avss.t108 sky130_fd_pr__res_xhigh_po_1p41 l=35
X52 a_n21538_n2937# a_n21160_n10337# avss.t108 sky130_fd_pr__res_xhigh_po_1p41 l=35
X53 avdd.t608 a_4653_n2876# a_5346_n3990# avdd.t607 sky130_fd_pr__pfet_g5v0d10v5 ad=0.1113 pd=1.37 as=0.1365 ps=1.49 w=0.42 l=1
X54 vin_brout avdd.t396 vin_brout avdd.t397 sky130_fd_pr__pfet_g5v0d10v5 ad=0.725 pd=5.29 as=0 ps=0 w=5 l=0.6
X55 dvdd.t164 sky130_fd_sc_hd__inv_4_4.Y outb.t14 dvdd.t163 sky130_fd_pr__pfet_01v8_hvt ad=0.135 pd=1.27 as=0.135 ps=1.27 w=1 l=0.15
X56 rstring_mux_0.otrip_decoded_b_avdd[2] rstring_mux_0.otrip_decoded_avdd[2] avss.t138 avss.t137 sky130_fd_pr__nfet_g5v0d10v5 ad=0.21375 pd=2.07 as=0.21375 ps=2.07 w=0.75 l=0.5
X57 a_6935_n11914# a_6557_n19314# avss.t193 sky130_fd_pr__res_xhigh_po_1p41 l=35
X58 avss.t301 comparator_0.ena rstring_mux_0.ena_b avss.t300 sky130_fd_pr__nfet_g5v0d10v5 ad=0.21375 pd=2.07 as=0.21375 ps=2.07 w=0.75 l=0.5
X59 a_n26830_n2937# a_n26452_n10337# avss.t108 sky130_fd_pr__res_xhigh_po_1p41 l=35
X60 a_n23806_n2937# a_n23428_n10337# avss.t108 sky130_fd_pr__res_xhigh_po_1p41 l=35
X61 comparator_0.vpp comparator_0.vnn avdd.t203 avdd.t33 sky130_fd_pr__pfet_g5v0d10v5 ad=0.145 pd=1.29 as=0.145 ps=1.29 w=1 l=8
X62 rstring_mux_0.vtrip2.t9 rstring_mux_0.vtrip_decoded_avdd[2] vin_vunder.t19 avss.t162 sky130_fd_pr__nfet_g5v0d10v5 ad=0.725 pd=5.29 as=0.725 ps=5.29 w=5 l=0.6
X63 outb.t31 sky130_fd_sc_hd__inv_4_4.Y dvss.t417 dvss.t416 sky130_fd_pr__nfet_01v8 ad=0.08775 pd=0.92 as=0.08775 ps=0.92 w=0.65 l=0.15
X64 rstring_mux_0.vtrip_decoded_avdd[2] a_3748_n3212# dvss.t358 dvss.t357 sky130_fd_pr__nfet_g5v0d10v5 ad=0.19875 pd=2.03 as=0.121875 ps=1.075 w=0.75 l=0.5
X65 a_n7326_n3990# a_n7751_n3946# dvss.t11 dvss.t10 sky130_fd_pr__nfet_g5v0d10v5 ad=0.3975 pd=3.53 as=0.21 ps=1.78 w=1.5 l=0.5
X66 a_6935_n11914# a_7313_n19314# avss.t116 sky130_fd_pr__res_xhigh_po_1p41 l=35
X67 a_n14989_n11914# a_n14611_n19314# avss.t179 sky130_fd_pr__res_xhigh_po_1p41 l=35
X68 a_n3649_n11914# a_n4027_n19314# avss.t130 sky130_fd_pr__res_xhigh_po_1p41 l=35
X69 dvdd.t73 vl sky130_fd_sc_hd__inv_4_3.Y dvdd.t72 sky130_fd_pr__pfet_01v8_hvt ad=0.26 pd=2.52 as=0.135 ps=1.27 w=1 l=0.15
X70 avdd.t455 a_n3795_n1142# a_n2588_n1478# avdd.t454 sky130_fd_pr__pfet_g5v0d10v5 ad=0.24375 pd=1.825 as=0.3975 ps=3.53 w=1.5 l=0.5
X71 dvss.t730 sky130_fd_sc_hd__inv_4_3.Y dcomp.t31 dvss.t729 sky130_fd_pr__nfet_01v8 ad=0.08775 pd=0.92 as=0.08775 ps=0.92 w=0.65 l=0.15
X72 comparator_0.vnn comparator_0.vpp avdd.t45 avdd.t22 sky130_fd_pr__pfet_g5v0d10v5 ad=0.145 pd=1.29 as=0.145 ps=1.29 w=1 l=8
X73 a_n4405_n11914# a_n4027_n19314# avss.t178 sky130_fd_pr__res_xhigh_po_1p41 l=35
X74 ibias_gen_0.vp1.t9 ibias_gen_0.vp1.t8 avdd.t449 avdd.t448 sky130_fd_pr__pfet_g5v0d10v5 ad=0.725 pd=5.29 as=0.725 ps=5.29 w=5 l=4
X75 a_n15529_n2223# ibias_gen_0.isrc_sel_b ibias_gen_0.vn1.t7 avdd.t220 sky130_fd_pr__pfet_g5v0d10v5 ad=0.725 pd=5.29 as=0.725 ps=5.29 w=5 l=0.6
X76 a_n1683_n1142# a_n1783_n1230# dvss.t120 dvss.t119 sky130_fd_pr__nfet_g5v0d10v5 ad=0.21 pd=1.78 as=0.3975 ps=3.53 w=1.5 l=0.5
X77 dvss.t641 vtrip_decoded[3].t0 a_2441_n1230# dvss.t640 sky130_fd_pr__nfet_01v8 ad=0.1176 pd=1.12 as=0.2478 ps=2.27 w=0.84 l=0.15
X78 comparator_0.vpp comparator_0.vnn avdd.t202 avdd.t33 sky130_fd_pr__pfet_g5v0d10v5 ad=0.145 pd=1.29 as=0.145 ps=1.29 w=1 l=8
X79 avdd.t210 a_n3102_n2256# a_n3795_n1142# avdd.t209 sky130_fd_pr__pfet_g5v0d10v5 ad=0.2142 pd=1.99 as=0.2142 ps=1.99 w=0.42 l=1
X80 avdd.t13 a_6765_n2876# a_7458_n3990# avdd.t12 sky130_fd_pr__pfet_g5v0d10v5 ad=0.1113 pd=1.37 as=0.1365 ps=1.49 w=0.42 l=1
X81 a_2809_n3946# a_2441_n2964# dvdd.t239 dvdd.t238 sky130_fd_pr__pfet_01v8_hvt ad=0.2478 pd=2.27 as=0.1176 ps=1.12 w=0.84 l=0.15
X82 dvdd.t162 sky130_fd_sc_hd__inv_4_4.Y outb.t13 dvdd.t161 sky130_fd_pr__pfet_01v8_hvt ad=0.135 pd=1.27 as=0.135 ps=1.27 w=1 l=0.15
X83 dvdd.t275 sky130_fd_sc_hd__inv_4_1.Y vunder.t8 dvdd.t274 sky130_fd_pr__pfet_01v8_hvt ad=0.135 pd=1.27 as=0.135 ps=1.27 w=1 l=0.15
X84 dvss.t108 sky130_fd_sc_hvl__lsbufhv2lv_1_1.X sky130_fd_sc_hd__inv_4_1.A dvss.t107 sky130_fd_pr__nfet_01v8 ad=0.08775 pd=0.92 as=0.08775 ps=0.92 w=0.65 l=0.15
X85 osc_ck.t5 osc_ena.t0 rc_osc_0.vr dvss.t383 sky130_fd_pr__nfet_01v8 ad=0.15 pd=1.3 as=0.1475 ps=1.295 w=1 l=0.18
X86 avdd.t201 comparator_0.vnn comparator_0.vnn avdd.t25 sky130_fd_pr__pfet_g5v0d10v5 ad=0.145 pd=1.29 as=0.145 ps=1.29 w=1 l=8
X87 rstring_mux_0.otrip_decoded_b_avdd[6] rstring_mux_0.otrip_decoded_avdd[6] avdd.t208 avdd.t207 sky130_fd_pr__pfet_g5v0d10v5 ad=0.4275 pd=3.57 as=0.4275 ps=3.57 w=1.5 l=0.5
X88 a_n10279_n24223# a_11121_n24601# dvss.t523 sky130_fd_pr__res_xhigh_po_1p41 l=105
X89 dcomp.t14 sky130_fd_sc_hd__inv_4_3.Y dvdd.t319 dvdd.t318 sky130_fd_pr__pfet_01v8_hvt ad=0.135 pd=1.27 as=0.135 ps=1.27 w=1 l=0.15
X90 dvdd.t37 sky130_fd_sc_hd__inv_4_0.Y brout_filt.t14 dvdd.t36 sky130_fd_pr__pfet_01v8_hvt ad=0.135 pd=1.27 as=0.135 ps=1.27 w=1 l=0.15
X91 rstring_mux_0.vtrip3.t6 rstring_mux_0.vtrip_decoded_b_avdd[3] vin_vunder.t34 avdd.t523 sky130_fd_pr__pfet_g5v0d10v5 ad=0.725 pd=5.29 as=0.725 ps=5.29 w=5 l=0.6
X92 dvdd.t287 rc_osc_0.m rc_osc_0.n.t3 dvdd.t286 sky130_fd_pr__pfet_01v8 ad=0.145 pd=1.29 as=0.145 ps=1.29 w=1 l=0.5
X93 avss.t286 comparator_1.vn comparator_1.vn avss.t225 sky130_fd_pr__nfet_g5v0d10v5 ad=0.145 pd=1.29 as=0.145 ps=1.29 w=1 l=8
X94 ibias_gen_0.vn0.t15 vbg_1v2.t3 ibias_gen_0.vstart.t10 avss.t115 sky130_fd_pr__nfet_g5v0d10v5 ad=0.725 pd=5.29 as=0.725 ps=5.29 w=5 l=0.6
X95 rc_osc_0.m rc_osc_0.in dvdd.t194 dvdd.t193 sky130_fd_pr__pfet_01v8 ad=0.145 pd=1.29 as=0.145 ps=1.29 w=1 l=0.5
X96 ibias_gen_0.vr.t4 a_n20404_n10337# avss.t108 sky130_fd_pr__res_xhigh_po_1p41 l=35
X97 avdd.t521 a_n5907_n1142# a_n4700_n1478# avdd.t517 sky130_fd_pr__pfet_g5v0d10v5 ad=0.24375 pd=1.825 as=0.3975 ps=3.53 w=1.5 l=0.5
X98 comparator_1.ena_b comparator_0.ena avdd.t560 avdd.t559 sky130_fd_pr__pfet_g5v0d10v5 ad=0.29 pd=2.58 as=0.29 ps=2.58 w=1 l=1
X99 dvss.t629 sky130_fd_sc_hd__inv_4_1.Y vunder.t31 dvss.t628 sky130_fd_pr__nfet_01v8 ad=0.08775 pd=0.92 as=0.08775 ps=0.92 w=0.65 l=0.15
X100 a_n13487_9395# a_n13109_1995# avss.t184 sky130_fd_pr__res_xhigh_po_1p41 l=35
X101 a_n3795_n1142# a_n3895_n1230# dvss.t265 dvss.t264 sky130_fd_pr__nfet_g5v0d10v5 ad=0.21 pd=1.78 as=0.3975 ps=3.53 w=1.5 l=0.5
X102 a_2541_n1142# a_2441_n1230# dvss.t581 dvss.t200 sky130_fd_pr__nfet_g5v0d10v5 ad=0.3975 pd=3.53 as=0.21 ps=1.78 w=1.5 l=0.5
X103 a_7033_n3946# a_6665_n2964# dvdd.t243 dvdd.t242 sky130_fd_pr__pfet_01v8_hvt ad=0.2478 pd=2.27 as=0.1176 ps=1.12 w=0.84 l=0.15
X104 sky130_fd_sc_hd__inv_4_1.Y sky130_fd_sc_hd__inv_4_1.A dvss.t553 dvss.t552 sky130_fd_pr__nfet_01v8 ad=0.08775 pd=0.92 as=0.169 ps=1.82 w=0.65 l=0.15
X105 schmitt_trigger_0.m.t8 schmitt_trigger_0.out.t4 dvdd.t101 dvdd.t100 sky130_fd_pr__pfet_01v8 ad=0.145 pd=1.29 as=0.145 ps=1.29 w=1 l=0.5
X106 a_n14243_9395# a_n14621_1995# avss.t118 sky130_fd_pr__res_xhigh_po_1p41 l=35
X107 dvdd.t121 dvdd.t119 schmitt_trigger_0.m.t12 dvdd.t120 sky130_fd_pr__pfet_01v8 ad=0.145 pd=1.29 as=0.145 ps=1.29 w=1 l=0.5
X108 dvdd.t5 otrip_decoded[6].t0 a_n1783_n2964# dvdd.t4 sky130_fd_pr__pfet_01v8_hvt ad=0.1176 pd=1.12 as=0.2478 ps=2.27 w=0.84 l=0.15
X109 avss.t355 comparator_1.n1 dcomp3v3 avss.t354 sky130_fd_pr__nfet_g5v0d10v5 ad=0.145 pd=1.29 as=0.145 ps=1.29 w=1 l=0.6
X110 dvss.t100 a_8877_n1142# a_10084_n1478# dvss.t0 sky130_fd_pr__nfet_g5v0d10v5 ad=0.121875 pd=1.075 as=0.19875 ps=2.03 w=0.75 l=0.5
X111 rstring_mux_0.vtrip_decoded_avdd[5] a_5860_n1478# avdd.t525 avdd.t515 sky130_fd_pr__pfet_g5v0d10v5 ad=0.3975 pd=3.53 as=0.24375 ps=1.825 w=1.5 l=0.5
X112 rstring_mux_0.otrip_decoded_b_avdd[1] rstring_mux_0.otrip_decoded_avdd[1] avdd.t212 avdd.t211 sky130_fd_pr__pfet_g5v0d10v5 ad=0.4275 pd=3.57 as=0.4275 ps=3.57 w=1.5 l=0.5
X113 a_n7429_n11914# a_n7807_n19314# avss.t122 sky130_fd_pr__res_xhigh_po_1p41 l=35
X114 dvss.t122 a_2541_n2876# a_3748_n3212# dvss.t121 sky130_fd_pr__nfet_g5v0d10v5 ad=0.121875 pd=1.075 as=0.19875 ps=2.03 w=0.75 l=0.5
X115 comparator_0.vnn comparator_0.vpp avdd.t44 avdd.t22 sky130_fd_pr__pfet_g5v0d10v5 ad=0.145 pd=1.29 as=0.145 ps=1.29 w=1 l=8
X116 avdd.t161 a_n8019_n1142# a_n6812_n1478# avdd.t153 sky130_fd_pr__pfet_g5v0d10v5 ad=0.24375 pd=1.825 as=0.3975 ps=3.53 w=1.5 l=0.5
X117 dcomp3v3uv comparator_0.n1 avdd.t439 avdd.t438 sky130_fd_pr__pfet_g5v0d10v5 ad=0.145 pd=1.29 as=0.145 ps=1.29 w=1 l=0.6
X118 vin_vunder.t21 rstring_mux_0.vtrip_decoded_b_avdd[5] rstring_mux_0.vtrip5.t7 avdd.t180 sky130_fd_pr__pfet_g5v0d10v5 ad=0.725 pd=5.29 as=0.725 ps=5.29 w=5 l=0.6
X119 rstring_mux_0.otrip_decoded_avdd[5] a_n2588_n1478# dvss.t697 dvss.t696 sky130_fd_pr__nfet_g5v0d10v5 ad=0.19875 pd=2.03 as=0.121875 ps=1.075 w=0.75 l=0.5
X120 avdd.t480 comparator_1.vpp comparator_1.vpp avdd.t125 sky130_fd_pr__pfet_g5v0d10v5 ad=0.145 pd=1.29 as=0.145 ps=1.29 w=1 l=8
X121 a_4653_n1142# a_4553_n1230# dvss.t533 dvss.t200 sky130_fd_pr__nfet_g5v0d10v5 ad=0.3975 pd=3.53 as=0.21 ps=1.78 w=1.5 l=0.5
X122 a_9145_n3946# a_8777_n2964# dvdd.t128 dvdd.t127 sky130_fd_pr__pfet_01v8_hvt ad=0.2478 pd=2.27 as=0.1176 ps=1.12 w=0.84 l=0.15
X123 avdd.t200 comparator_0.vnn comparator_0.vnn avdd.t25 sky130_fd_pr__pfet_g5v0d10v5 ad=0.145 pd=1.29 as=0.145 ps=1.29 w=1 l=8
X124 comparator_1.vt vin_brout comparator_1.vnn comparator_1.vt sky130_fd_pr__nfet_g5v0d10v5 ad=0.145 pd=1.29 as=0.145 ps=1.29 w=1 l=8
X125 a_5423_n11914# a_5801_n19314# avss.t222 sky130_fd_pr__res_xhigh_po_1p41 l=35
X126 avdd.t148 comparator_1.vnn comparator_1.vpp avdd.t125 sky130_fd_pr__pfet_g5v0d10v5 ad=0.145 pd=1.29 as=0.145 ps=1.29 w=1 l=8
X127 comparator_0.vnn vin_vunder.t50 comparator_0.vt comparator_0.vt sky130_fd_pr__nfet_g5v0d10v5 ad=0.145 pd=1.29 as=0.145 ps=1.29 w=1 l=8
X128 dvss.t448 outb_unbuf.t0 sky130_fd_sc_hd__inv_4_4.Y dvss.t447 sky130_fd_pr__nfet_01v8 ad=0.08775 pd=0.92 as=0.08775 ps=0.92 w=0.65 l=0.15
X129 dvdd.t210 otrip_decoded[4].t0 a_n3895_n2964# dvdd.t209 sky130_fd_pr__pfet_01v8_hvt ad=0.1176 pd=1.12 as=0.2478 ps=2.27 w=0.84 l=0.15
X130 a_n11975_9395# a_n11597_1995# avss.t117 sky130_fd_pr__res_xhigh_po_1p41 l=35
X131 dvss.t91 sky130_fd_sc_hd__inv_4_0.Y brout_filt.t30 dvss.t90 sky130_fd_pr__nfet_01v8 ad=0.169 pd=1.82 as=0.08775 ps=0.92 w=0.65 l=0.15
X132 dvss.t97 vtrip_decoded[1].t0 a_329_n1230# dvss.t96 sky130_fd_pr__nfet_01v8 ad=0.1176 pd=1.12 as=0.2478 ps=2.27 w=0.84 l=0.15
X133 a_697_n3946# a_329_n2964# dvdd.t99 dvdd.t98 sky130_fd_pr__pfet_01v8_hvt ad=0.2478 pd=2.27 as=0.1176 ps=1.12 w=0.84 l=0.15
X134 avdd.t395 avdd.t393 avdd.t394 avdd.t227 sky130_fd_pr__pfet_g5v0d10v5 ad=0.29 pd=2.58 as=0 ps=0 w=1 l=8
X135 comparator_0.vpp comparator_0.vpp avdd.t43 avdd.t33 sky130_fd_pr__pfet_g5v0d10v5 ad=0.145 pd=1.29 as=0.145 ps=1.29 w=1 l=8
X136 rstring_mux_0.vtrip1.t0 rstring_mux_0.vtrip2.t3 avss.t128 sky130_fd_pr__res_xhigh_po_1p41 l=35
X137 dvss.t695 dvss.t693 osc_ck.t7 dvss.t694 sky130_fd_pr__nfet_01v8 ad=0.1475 pd=1.295 as=0.15 ps=1.3 w=1 l=0.18
X138 comparator_1.vm comparator_1.vm avss.t232 avss.t231 sky130_fd_pr__nfet_g5v0d10v5 ad=0.145 pd=1.29 as=0.145 ps=1.29 w=1 l=8
X139 dvdd.t160 sky130_fd_sc_hd__inv_4_4.Y outb.t12 dvdd.t159 sky130_fd_pr__pfet_01v8_hvt ad=0.135 pd=1.27 as=0.135 ps=1.27 w=1 l=0.15
X140 avdd.t407 a_429_n1142# a_1636_n1478# avdd.t406 sky130_fd_pr__pfet_g5v0d10v5 ad=0.24375 pd=1.825 as=0.3975 ps=3.53 w=1.5 l=0.5
X141 dvss.t733 a_4653_n2876# a_5860_n3212# dvss.t732 sky130_fd_pr__nfet_g5v0d10v5 ad=0.121875 pd=1.075 as=0.19875 ps=2.03 w=0.75 l=0.5
X142 avdd.t89 rstring_mux_0.ena_b rstring_mux_0.vtop.t16 avdd.t88 sky130_fd_pr__pfet_g5v0d10v5 ad=0.725 pd=5.29 as=0.725 ps=5.29 w=5 l=0.6
X143 avdd.t178 comparator_0.n0 comparator_0.n1 avdd.t177 sky130_fd_pr__pfet_g5v0d10v5 ad=0.145 pd=1.29 as=0.145 ps=1.29 w=1 l=0.6
X144 avdd.t199 comparator_0.vnn comparator_0.vpp avdd.t18 sky130_fd_pr__pfet_g5v0d10v5 ad=0.145 pd=1.29 as=0.145 ps=1.29 w=1 l=8
X145 comparator_1.vpp comparator_1.vnn avdd.t147 avdd.t123 sky130_fd_pr__pfet_g5v0d10v5 ad=0.145 pd=1.29 as=0.145 ps=1.29 w=1 l=8
X146 dvdd.t103 schmitt_trigger_0.out.t5 schmitt_trigger_0.m.t9 dvdd.t102 sky130_fd_pr__pfet_01v8 ad=0.145 pd=1.29 as=0.145 ps=1.29 w=1 l=0.5
X147 ibias_gen_0.vp0.t11 ibias_gen_0.vp0.t10 avdd.t508 avdd.t507 sky130_fd_pr__pfet_g5v0d10v5 ad=0.725 pd=5.29 as=0.725 ps=5.29 w=5 l=4
X148 outb.t30 sky130_fd_sc_hd__inv_4_4.Y dvss.t415 dvss.t414 sky130_fd_pr__nfet_01v8 ad=0.08775 pd=0.92 as=0.08775 ps=0.92 w=0.65 l=0.15
X149 rstring_mux_0.otrip_decoded_avdd[3] a_n4700_n1478# dvss.t555 dvss.t554 sky130_fd_pr__nfet_g5v0d10v5 ad=0.19875 pd=2.03 as=0.121875 ps=1.075 w=0.75 l=0.5
X150 avdd.t392 avdd.t391 avdd.t392 avdd.t246 sky130_fd_pr__pfet_g5v0d10v5 ad=0.145 pd=1.29 as=0 ps=0 w=1 l=8
X151 a_6765_n1142# a_6665_n1230# dvss.t205 dvss.t200 sky130_fd_pr__nfet_g5v0d10v5 ad=0.3975 pd=3.53 as=0.21 ps=1.78 w=1.5 l=0.5
X152 rstring_mux_0.vtop.t15 rstring_mux_0.ena_b avdd.t87 avdd.t86 sky130_fd_pr__pfet_g5v0d10v5 ad=0.725 pd=5.29 as=0.725 ps=5.29 w=5 l=0.6
X153 ibias_gen_0.ena_b comparator_0.ena avss.t299 avss.t298 sky130_fd_pr__nfet_g5v0d10v5 ad=0.725 pd=5.29 as=1.45 ps=10.58 w=5 l=1
X154 rstring_mux_0.otrip_decoded_avdd[2] a_n4700_n3212# avdd.t111 avdd.t110 sky130_fd_pr__pfet_g5v0d10v5 ad=0.3975 pd=3.53 as=0.24375 ps=1.825 w=1.5 l=0.5
X155 dvdd.t212 otrip_decoded[2].t0 a_n6007_n2964# dvdd.t211 sky130_fd_pr__pfet_01v8_hvt ad=0.1176 pd=1.12 as=0.2478 ps=2.27 w=0.84 l=0.15
X156 vin_brout rstring_mux_0.otrip_decoded_b_avdd[6] rstring_mux_0.vtrip6.t7 avdd.t490 sky130_fd_pr__pfet_g5v0d10v5 ad=0.725 pd=5.29 as=0.725 ps=5.29 w=5 l=0.6
X157 avdd.t479 comparator_1.vpp comparator_1.vpp avdd.t125 sky130_fd_pr__pfet_g5v0d10v5 ad=0.145 pd=1.29 as=0.145 ps=1.29 w=1 l=8
X158 avss.t95 avss.t93 avss.t94 avss.t16 sky130_fd_pr__nfet_g5v0d10v5 ad=1.45 pd=10.58 as=0 ps=0 w=5 l=8
X159 dvss.t89 sky130_fd_sc_hd__inv_4_0.Y brout_filt.t29 dvss.t88 sky130_fd_pr__nfet_01v8 ad=0.08775 pd=0.92 as=0.08775 ps=0.92 w=0.65 l=0.15
X160 a_10873_n2760# a_10514_n2760# dvss.t238 dvss.t235 sky130_fd_pr__nfet_g5v0d10v5 ad=0.19875 pd=2.03 as=0.105 ps=1.03 w=0.75 l=0.5
X161 a_887_n11914# a_509_n19314# avss.t272 sky130_fd_pr__res_xhigh_po_1p41 l=35
X162 comparator_0.vnn comparator_0.vpp avdd.t42 avdd.t22 sky130_fd_pr__pfet_g5v0d10v5 ad=0.145 pd=1.29 as=0.145 ps=1.29 w=1 l=8
X163 avdd.t198 comparator_0.vnn comparator_0.vnn avdd.t25 sky130_fd_pr__pfet_g5v0d10v5 ad=0.145 pd=1.29 as=0.145 ps=1.29 w=1 l=8
X164 ibias_gen_0.vp.t4 comparator_0.ena avdd.t558 avdd.t557 sky130_fd_pr__pfet_g5v0d10v5 ad=1.45 pd=10.58 as=0.725 ps=5.29 w=5 l=2
X165 avdd.t485 a_1122_n2256# a_429_n1142# avdd.t484 sky130_fd_pr__pfet_g5v0d10v5 ad=0.2142 pd=1.99 as=0.2142 ps=1.99 w=0.42 l=1
X166 osc_ck.t0 rc_osc_0.n.t6 dvss.t146 dvss.t145 sky130_fd_pr__nfet_01v8 ad=0.29 pd=2.58 as=0.145 ps=1.29 w=1 l=0.5
X167 avdd.t85 rstring_mux_0.ena_b rstring_mux_0.vtop.t14 avdd.t84 sky130_fd_pr__pfet_g5v0d10v5 ad=0.725 pd=5.29 as=0.725 ps=5.29 w=5 l=0.6
X168 dvdd.t158 sky130_fd_sc_hd__inv_4_4.Y outb.t11 dvdd.t157 sky130_fd_pr__pfet_01v8_hvt ad=0.135 pd=1.27 as=0.135 ps=1.27 w=1 l=0.15
X169 comparator_0.vt vbg_1v2.t4 comparator_0.vpp comparator_0.vt sky130_fd_pr__nfet_g5v0d10v5 ad=0.145 pd=1.29 as=0.145 ps=1.29 w=1 l=8
X170 avdd.t93 ibias_gen_0.vp.t8 ibias_gen_0.ibias0 avdd.t92 sky130_fd_pr__pfet_g5v0d10v5 ad=0.725 pd=5.29 as=0.725 ps=5.29 w=5 l=4
X171 dvss.t99 dcomp3v3uv a_10514_n2760# dvss.t98 sky130_fd_pr__nfet_g5v0d10v5 ad=0.178875 pd=1.26 as=0.1197 ps=1.41 w=0.42 l=0.5
X172 rstring_mux_0.vtrip_decoded_b_avdd[0] rstring_mux_0.vtrip_decoded_avdd[0] avss.t291 avss.t290 sky130_fd_pr__nfet_g5v0d10v5 ad=0.21375 pd=2.07 as=0.21375 ps=2.07 w=0.75 l=0.5
X173 comparator_1.n1 comparator_1.n0 avss.t361 avss.t360 sky130_fd_pr__nfet_g5v0d10v5 ad=0.145 pd=1.29 as=0.29 ps=2.58 w=1 l=0.6
X174 ibias_gen_0.vn0.t4 ibias_gen_0.vn0.t3 ibias_gen_0.ve.t4 avss.t14 sky130_fd_pr__nfet_g5v0d10v5 ad=0.725 pd=5.29 as=0.725 ps=5.29 w=5 l=4
X175 ibias_gen_0.vp.t2 ibias_gen_0.isrc_sel_b ibias_gen_0.vp0.t3 avss.t198 sky130_fd_pr__nfet_g5v0d10v5 ad=0.725 pd=5.29 as=0.725 ps=5.29 w=5 l=0.6
X176 avss.t127 comparator_0.vn comparator_0.vt avss.t24 sky130_fd_pr__nfet_g5v0d10v5 ad=0.145 pd=1.29 as=0.145 ps=1.29 w=1 l=8
X177 avdd.t390 avdd.t388 avdd.t389 avdd.t227 sky130_fd_pr__pfet_g5v0d10v5 ad=0.29 pd=2.58 as=0 ps=0 w=1 l=8
X178 vin_vunder.t42 avdd.t386 vin_brout avdd.t387 sky130_fd_pr__pfet_g5v0d10v5 ad=0.725 pd=5.29 as=0.725 ps=5.29 w=5 l=0.6
X179 rstring_mux_0.vtop.t13 rstring_mux_0.ena_b avdd.t83 avdd.t82 sky130_fd_pr__pfet_g5v0d10v5 ad=0.725 pd=5.29 as=0.725 ps=5.29 w=5 l=0.6
X180 comparator_1.vpp comparator_1.vnn avdd.t146 avdd.t123 sky130_fd_pr__pfet_g5v0d10v5 ad=0.145 pd=1.29 as=0.145 ps=1.29 w=1 l=8
X181 ibias_gen_0.vp1.t1 ibias_gen_0.vn1.t10 avss.t145 avss.t143 sky130_fd_pr__nfet_g5v0d10v5 ad=0.725 pd=5.29 as=0.725 ps=5.29 w=5 l=8
X182 a_n5917_n11914# a_n6295_n19314# avss.t335 sky130_fd_pr__res_xhigh_po_1p41 l=35
X183 avdd.t197 comparator_0.vnn comparator_0.vpp avdd.t18 sky130_fd_pr__pfet_g5v0d10v5 ad=0.145 pd=1.29 as=0.145 ps=1.29 w=1 l=8
X184 a_n7751_n2212# a_n8119_n1230# dvss.t670 dvss.t669 sky130_fd_pr__nfet_01v8 ad=0.2478 pd=2.27 as=0.1176 ps=1.12 w=0.84 l=0.15
X185 rstring_mux_0.otrip_decoded_avdd[0] a_n6812_n3212# avdd.t216 avdd.t215 sky130_fd_pr__pfet_g5v0d10v5 ad=0.3975 pd=3.53 as=0.24375 ps=1.825 w=1.5 l=0.5
X186 rstring_mux_0.vtrip_decoded_b_avdd[4] rstring_mux_0.vtrip_decoded_avdd[4] avss.t218 avss.t217 sky130_fd_pr__nfet_g5v0d10v5 ad=0.21375 pd=2.07 as=0.21375 ps=2.07 w=0.75 l=0.5
X187 dvss.t87 sky130_fd_sc_hd__inv_4_0.Y brout_filt.t28 dvss.t86 sky130_fd_pr__nfet_01v8 ad=0.08775 pd=0.92 as=0.08775 ps=0.92 w=0.65 l=0.15
X188 dvss.t627 sky130_fd_sc_hd__inv_4_1.Y vunder.t30 dvss.t626 sky130_fd_pr__nfet_01v8 ad=0.08775 pd=0.92 as=0.08775 ps=0.92 w=0.65 l=0.15
X189 dvdd.t235 otrip_decoded[0].t1 a_n8119_n2964# dvdd.t234 sky130_fd_pr__pfet_01v8_hvt ad=0.1176 pd=1.12 as=0.2478 ps=2.27 w=0.84 l=0.15
X190 vin_brout rstring_mux_0.otrip_decoded_b_avdd[1] rstring_mux_0.vtrip1.t6 avdd.t214 sky130_fd_pr__pfet_g5v0d10v5 ad=0.725 pd=5.29 as=0.725 ps=5.29 w=5 l=0.6
X191 rc_osc_0.in a_11121_n25357# dvss.t468 sky130_fd_pr__res_xhigh_po_1p41 l=105
X192 dcomp3v3 comparator_1.n1 avdd.t599 avdd.t598 sky130_fd_pr__pfet_g5v0d10v5 ad=0.145 pd=1.29 as=0.145 ps=1.29 w=1 l=0.6
X193 sky130_fd_sc_hd__inv_4_1.Y sky130_fd_sc_hd__inv_4_1.A dvss.t551 dvss.t550 sky130_fd_pr__nfet_01v8 ad=0.08775 pd=0.92 as=0.08775 ps=0.92 w=0.65 l=0.15
X194 rstring_mux_0.vtrip_decoded_avdd[1] a_1636_n1478# avdd.t423 avdd.t406 sky130_fd_pr__pfet_g5v0d10v5 ad=0.3975 pd=3.53 as=0.24375 ps=1.825 w=1.5 l=0.5
X195 avdd.t488 a_6765_n1142# a_7972_n1478# avdd.t450 sky130_fd_pr__pfet_g5v0d10v5 ad=0.24375 pd=1.825 as=0.3975 ps=3.53 w=1.5 l=0.5
X196 avdd.t206 a_3234_n2256# a_2541_n1142# avdd.t205 sky130_fd_pr__pfet_g5v0d10v5 ad=0.2142 pd=1.99 as=0.2142 ps=1.99 w=0.42 l=1
X197 a_n8195_9395# schmitt_trigger_0.in.t0 avss.t321 sky130_fd_pr__res_xhigh_po_1p41 l=35
X198 rc_osc_0.vr dvdd.t117 rc_osc_0.ena_b dvdd.t118 sky130_fd_pr__pfet_01v8 ad=0.1475 pd=1.295 as=0.145 ps=1.29 w=1 l=0.5
X199 vin_brout rstring_mux_0.otrip_decoded_avdd[0] rstring_mux_0.vtrip0.t7 avss.t280 sky130_fd_pr__nfet_g5v0d10v5 ad=0.725 pd=5.29 as=0.725 ps=5.29 w=5 l=0.6
X200 comparator_0.vnn comparator_0.vpp avdd.t41 avdd.t22 sky130_fd_pr__pfet_g5v0d10v5 ad=0.145 pd=1.29 as=0.145 ps=1.29 w=1 l=8
X201 a_n8951_9395# a_n9329_1995# avss.t150 sky130_fd_pr__res_xhigh_po_1p41 l=35
X202 avss.t92 avss.t90 avss.t91 avss.t16 sky130_fd_pr__nfet_g5v0d10v5 ad=1.45 pd=10.58 as=0 ps=0 w=5 l=8
X203 dcomp.t13 sky130_fd_sc_hd__inv_4_3.Y dvdd.t317 dvdd.t316 sky130_fd_pr__pfet_01v8_hvt ad=0.135 pd=1.27 as=0.135 ps=1.27 w=1 l=0.15
X204 vin_brout avdd.t384 vin_brout avdd.t385 sky130_fd_pr__pfet_g5v0d10v5 ad=0.725 pd=5.29 as=0 ps=0 w=5 l=0.6
X205 avdd.t145 comparator_1.vnn comparator_1.vnn avdd.t140 sky130_fd_pr__pfet_g5v0d10v5 ad=0.145 pd=1.29 as=0.145 ps=1.29 w=1 l=8
X206 dvdd.t174 vtrip_decoded[3].t1 a_2441_n1230# dvdd.t173 sky130_fd_pr__pfet_01v8_hvt ad=0.1176 pd=1.12 as=0.2478 ps=2.27 w=0.84 l=0.15
X207 rstring_mux_0.otrip_decoded_b_avdd[4] rstring_mux_0.otrip_decoded_avdd[4] avss.t330 avss.t329 sky130_fd_pr__nfet_g5v0d10v5 ad=0.21375 pd=2.07 as=0.21375 ps=2.07 w=0.75 l=0.5
X208 avdd.t383 avdd.t382 avdd.t383 avdd.t246 sky130_fd_pr__pfet_g5v0d10v5 ad=0.145 pd=1.29 as=0 ps=0 w=1 l=8
X209 vin_vunder.t41 avdd.t380 vin_vunder.t41 avdd.t381 sky130_fd_pr__pfet_g5v0d10v5 ad=0.725 pd=5.29 as=0 ps=0 w=5 l=0.6
X210 avdd.t95 ibias_gen_0.vp.t9 itest.t0 avdd.t94 sky130_fd_pr__pfet_g5v0d10v5 ad=0.725 pd=5.29 as=0.725 ps=5.29 w=5 l=4
X211 vin_brout rstring_mux_0.otrip_decoded_avdd[4] rstring_mux_0.vtrip4.t8 avss.t328 sky130_fd_pr__nfet_g5v0d10v5 ad=0.725 pd=5.29 as=0.725 ps=5.29 w=5 l=0.6
X212 avdd.t478 comparator_1.vpp comparator_1.vpp avdd.t125 sky130_fd_pr__pfet_g5v0d10v5 ad=0.145 pd=1.29 as=0.145 ps=1.29 w=1 l=8
X213 ibias_gen_0.vstart.t9 vbg_1v2.t5 ibias_gen_0.vn0.t14 avss.t115 sky130_fd_pr__nfet_g5v0d10v5 ad=0.725 pd=5.29 as=0.725 ps=5.29 w=5 l=0.6
X214 ibias_gen_0.isrc_sel_b avss.t88 ibias_gen_0.ena_b avss.t89 sky130_fd_pr__nfet_g5v0d10v5 ad=0.725 pd=5.29 as=0.725 ps=5.29 w=5 l=1
X215 a_n1683_n1142# a_n1783_n1230# dvss.t118 dvss.t117 sky130_fd_pr__nfet_g5v0d10v5 ad=0.21 pd=1.78 as=0.21 ps=1.78 w=1.5 l=0.5
X216 comparator_1.vn comparator_0.ena ibias_gen_0.ibias0 avss.t297 sky130_fd_pr__nfet_g5v0d10v5 ad=0.29 pd=2.58 as=0.29 ps=2.58 w=1 l=1
X217 comparator_0.vnn comparator_0.vpp avdd.t40 avdd.t22 sky130_fd_pr__pfet_g5v0d10v5 ad=0.145 pd=1.29 as=0.145 ps=1.29 w=1 l=8
X218 comparator_1.vt vin_brout comparator_1.vnn comparator_1.vt sky130_fd_pr__nfet_g5v0d10v5 ad=0.145 pd=1.29 as=0.145 ps=1.29 w=1 l=8
X219 comparator_0.vnn vin_vunder.t51 comparator_0.vt comparator_0.vt sky130_fd_pr__nfet_g5v0d10v5 ad=0.145 pd=1.29 as=0.145 ps=1.29 w=1 l=8
X220 a_n20782_n2937# a_n21160_n10337# avss.t108 sky130_fd_pr__res_xhigh_po_1p41 l=35
X221 rstring_mux_0.vtrip_decoded_avdd[3] a_3748_n1478# avdd.t1 avdd.t0 sky130_fd_pr__pfet_g5v0d10v5 ad=0.3975 pd=3.53 as=0.24375 ps=1.825 w=1.5 l=0.5
X222 comparator_0.vnn vin_vunder.t52 comparator_0.vt comparator_0.vt sky130_fd_pr__nfet_g5v0d10v5 ad=0.145 pd=1.29 as=0.145 ps=1.29 w=1 l=8
X223 dvss.t413 sky130_fd_sc_hd__inv_4_4.Y outb.t29 dvss.t412 sky130_fd_pr__nfet_01v8 ad=0.08775 pd=0.92 as=0.08775 ps=0.92 w=0.65 l=0.15
X224 avdd.t415 a_5346_n2256# a_4653_n1142# avdd.t414 sky130_fd_pr__pfet_g5v0d10v5 ad=0.2142 pd=1.99 as=0.2142 ps=1.99 w=0.42 l=1
X225 comparator_1.vnn avss.t367 comparator_1.vt comparator_1.vt sky130_fd_pr__nfet_g5v0d10v5 ad=0.145 pd=1.29 as=0.29 ps=2.58 w=1 l=8
X226 avdd.t379 avdd.t377 avdd.t378 avdd.t236 sky130_fd_pr__pfet_g5v0d10v5 ad=0.29 pd=2.58 as=0 ps=0 w=1 l=8