** sch_path: /home/rtsang/chipalooza/sky130_ajc_ip__brownout/xschem/tb_brownout.sch
**.subckt tb_brownout
Vavss avss GND 0
Vena ena GND pwl (0 dvdd 500u dvdd 500.01u 0 600u 0 600.01u dvdd)
Vavdd avdd GND pwl (0 0 20u 0 400u avdd 700u avdd 900u 2 1000u 2 1200u avdd)
.save i(vavdd)
Vbg vbg_1v2 GND 1.2
Ibias vbp avss 200n
XM1 ibg_200n vbp avdd avdd sky130_fd_pr__pfet_g5v0d10v5 L=4 W=1 nf=1 ad='int((nf+1)/2) * W/nf * 0.29' as='int((nf+2)/2) * W/nf * 0.29'
+ pd='2*int((nf+1)/2) * (W/nf + 0.29)' ps='2*int((nf+2)/2) * (W/nf + 0.29)' nrd='0.29 / W' nrs='0.29 / W' sa=0 sb=0 sd=0 mult=1 m=1
XM0 vbp vbp avdd avdd sky130_fd_pr__pfet_g5v0d10v5 L=4 W=1 nf=1 ad='int((nf+1)/2) * W/nf * 0.29' as='int((nf+2)/2) * W/nf * 0.29' pd='2*int((nf+1)/2) * (W/nf + 0.29)'
+ ps='2*int((nf+2)/2) * (W/nf + 0.29)' nrd='0.29 / W' nrs='0.29 / W' sa=0 sb=0 sd=0 mult=1 m=1
Vdvss dvss GND 0
Vdvdd dvdd GND dvdd
.save i(vdvdd)
R1 itest GND 1e6 m=1
C1 out GND 20p m=1
xIbrout avdd avss out dvdd osc_ck dvss vbg_1v2 osc_ck_256 otrip_2_ otrip_1_ otrip_0_ itest vtrip_2_ vtrip_1_ vtrip_0_ brout_filt
+ vin_brout ena force_rc_osc vin_vunder force_short_oneshot timed_out vunder isrc_sel ibg_200n brownout
Vvotrip0 otrip_0_ GND DC 0
.save i(vvotrip0)
Vvotrip1 otrip_1_ GND DC 0
.save i(vvotrip1)
Vvotrip2 otrip_2_ GND DC 0
.save i(vvotrip2)
Vvvtrip0 vtrip_0_ GND DC 0
.save i(vvvtrip0)
Vvvtrip1 vtrip_1_ GND DC 0
.save i(vvvtrip1)
Vvvtrip2 vtrip_2_ GND DC 0
.save i(vvvtrip2)
**** begin user architecture code


.param avdd=3.3
.param dvdd=1.8

.lib libs.tech/ngspice/sky130.lib.spice tt
.include libs.ref/sky130_fd_sc_hvl/spice/sky130_fd_sc_hvl.spice
.include libs.ref/sky130_fd_sc_hd/spice/sky130_fd_sc_hd.spice

*dig pull up/down to set test bits
R000 ena dvdd 1e9
R001 force_rc_osc dvss 1e9
R002 force_short_oneshot dvdd 1e9
R003 isrc_sel dvss 1e9

.temp 25
.save all
.save @m.xibrout.xiana.xirsmux.xmena.msky130_fd_pr__nfet_g5v0d10v5[id]

.control
tran 10u 1400u
plot brout_filt itest avdd ena vbg_1v2 vin_brout vin_vunder timed_out xibrout.xiana.dcomp xibrout.xiana.dcomp_filt
plot i(Vavdd) i(Vdvdd)
plot @m.xibrout.xiana.xirsmux.xmena.msky130_fd_pr__nfet_g5v0d10v5[id]
plot out avdd vunder*0.75 ena*0.5
.endc


**** end user architecture code
**.ends

* expanding   symbol:  xschem/brownout.sym # of pins=21
** sym_path: /home/rtsang/chipalooza/sky130_ajc_ip__brownout/xschem/brownout.sym
** sch_path: /home/rtsang/chipalooza/sky130_ajc_ip__brownout/xschem/brownout.sch
.subckt brownout avdd avss out dvdd osc_ck dvss vbg_1v2 osc_ck_256 otrip_2_ otrip_1_ otrip_0_ itest vtrip_2_ vtrip_1_ vtrip_0_
+ brout_filt vin_brout ena force_rc_osc vin_vunder force_short_oneshot timed_out vunder isrc_sel ibg_200n
*.ipin avdd
*.ipin avss
*.ipin dvdd
*.ipin dvss
*.ipin vbg_1v2
*.ipin otrip_2_,otrip_1_,otrip_0_
*.ipin ena
*.ipin force_rc_osc
*.ipin force_short_oneshot
*.ipin isrc_sel
*.ipin ibg_200n
*.opin vin_brout
*.opin out
*.opin osc_ck
*.opin osc_ck_256
*.opin brout_filt
*.opin itest
*.opin timed_out
*.ipin vtrip_2_,vtrip_1_,vtrip_0_
*.opin vin_vunder
*.opin vunder
xIana vin_brout vin_vunder otrip_decoded_7_ otrip_decoded_6_ otrip_decoded_5_ otrip_decoded_4_ otrip_decoded_3_ otrip_decoded_2_
+ otrip_decoded_1_ otrip_decoded_0_ vbg_1v2 avdd itest ena avss ibg_200n dvdd dvss isrc_sel vtrip_decoded_7_ vtrip_decoded_6_ vtrip_decoded_5_
+ vtrip_decoded_4_ vtrip_decoded_3_ vtrip_decoded_2_ vtrip_decoded_1_ vtrip_decoded_0_ brout_filt osc_ck osc_ena vunder out out_unbuf brownout_ana
**** begin user architecture code



*XSPICE CO-SIM netlist
.include brownout_dig.out.spice
xibrownout_dig dvss dvdd brout_filt ena force_rc_osc force_short_oneshot osc_ck osc_ck_256 osc_ena
+otrip_0_ otrip_1_ otrip_2_
+otrip_decoded_0_ otrip_decoded_1_ otrip_decoded_2_ otrip_decoded_3_ otrip_decoded_4_ otrip_decoded_5_ otrip_decoded_6_ otrip_decoded_7_
+out_unbuf timed_out
+vtrip_0_ vtrip_1_ vtrip_2_
+vtrip_decoded_0_ vtrip_decoded_1_ vtrip_decoded_2_ vtrip_decoded_3_ vtrip_decoded_4_ vtrip_decoded_5_ vtrip_decoded_6_ vtrip_decoded_7_
+brownout_dig


**** end user architecture code
.ends


* expanding   symbol:  xschem/brownout_ana.sym # of pins=19
** sym_path: /home/rtsang/chipalooza/sky130_ajc_ip__brownout/xschem/brownout_ana.sym
** sch_path: /home/rtsang/chipalooza/sky130_ajc_ip__brownout/xschem/brownout_ana.sch
.subckt brownout_ana vin_brout vin_vunder otrip_decoded_7_ otrip_decoded_6_ otrip_decoded_5_ otrip_decoded_4_ otrip_decoded_3_
+ otrip_decoded_2_ otrip_decoded_1_ otrip_decoded_0_ vbg_1v2 avdd itest ena avss ibg_200n dvdd dvss isrc_sel vtrip_decoded_7_ vtrip_decoded_6_
+ vtrip_decoded_5_ vtrip_decoded_4_ vtrip_decoded_3_ vtrip_decoded_2_ vtrip_decoded_1_ vtrip_decoded_0_ brout_filt osc_ck osc_ena vunder out
+ out_unbuf
*.ipin vbg_1v2
*.ipin avdd
*.ipin avss
*.ipin dvdd
*.ipin dvss
*.ipin ena
*.ipin isrc_sel
*.ipin ibg_200n
*.opin brout_filt
*.opin itest
*.ipin osc_ena
*.opin osc_ck
*.ipin
*+ otrip_decoded_7_,otrip_decoded_6_,otrip_decoded_5_,otrip_decoded_4_,otrip_decoded_3_,otrip_decoded_2_,otrip_decoded_1_,otrip_decoded_0_
*.opin vin_brout
*.ipin out_unbuf
*.opin out
*.opin vunder
*.ipin
*+ vtrip_decoded_7_,vtrip_decoded_6_,vtrip_decoded_5_,vtrip_decoded_4_,vtrip_decoded_3_,vtrip_decoded_2_,vtrip_decoded_1_,vtrip_decoded_0_
*.opin vin_vunder
XR1 dcomp_filt dcomp avss sky130_fd_pr__res_xhigh_po W=2 L=2000 mult=1 m=1
xIlvls4 dcomp_filt dvdd avss avss avdd avdd brout_filt sky130_fd_sc_hvl__lsbufhv2lv_1
XC1 dcomp_filt avss sky130_fd_pr__cap_mim_m3_1 W=30 L=30 MF=3 m=3
XC2 dcomp_filt avss sky130_fd_pr__cap_mim_m3_2 W=30 L=30 MF=3 m=3
xIlvls0_7_ otrip_decoded_7_ dvdd avss avss avdd avdd otrip_decoded_avdd_7_ sky130_fd_sc_hvl__lsbuflv2hv_1
xIlvls0_6_ otrip_decoded_6_ dvdd avss avss avdd avdd otrip_decoded_avdd_6_ sky130_fd_sc_hvl__lsbuflv2hv_1
xIlvls0_5_ otrip_decoded_5_ dvdd avss avss avdd avdd otrip_decoded_avdd_5_ sky130_fd_sc_hvl__lsbuflv2hv_1
xIlvls0_4_ otrip_decoded_4_ dvdd avss avss avdd avdd otrip_decoded_avdd_4_ sky130_fd_sc_hvl__lsbuflv2hv_1
xIlvls0_3_ otrip_decoded_3_ dvdd avss avss avdd avdd otrip_decoded_avdd_3_ sky130_fd_sc_hvl__lsbuflv2hv_1
xIlvls0_2_ otrip_decoded_2_ dvdd avss avss avdd avdd otrip_decoded_avdd_2_ sky130_fd_sc_hvl__lsbuflv2hv_1
xIlvls0_1_ otrip_decoded_1_ dvdd avss avss avdd avdd otrip_decoded_avdd_1_ sky130_fd_sc_hvl__lsbuflv2hv_1
xIlvls0_0_ otrip_decoded_0_ dvdd avss avss avdd avdd otrip_decoded_avdd_0_ sky130_fd_sc_hvl__lsbuflv2hv_1
xIlvls1 ena dvdd avss avss avdd avdd ena_avdd sky130_fd_sc_hvl__lsbuflv2hv_1
xIlvls2 isrc_sel dvdd avss avss avdd avdd isrc_sel_avdd sky130_fd_sc_hvl__lsbuflv2hv_1
xIrsmux avdd vin_brout otrip_decoded_avdd_7_ otrip_decoded_avdd_6_ otrip_decoded_avdd_5_ otrip_decoded_avdd_4_
+ otrip_decoded_avdd_3_ otrip_decoded_avdd_2_ otrip_decoded_avdd_1_ otrip_decoded_avdd_0_ vtrip_decoded_avdd_7_ vtrip_decoded_avdd_6_
+ vtrip_decoded_avdd_5_ vtrip_decoded_avdd_4_ vtrip_decoded_avdd_3_ vtrip_decoded_avdd_2_ vtrip_decoded_avdd_1_ vtrip_decoded_avdd_0_ dvdd dvss
+ vin_vunder ena_avdd avss rstring_mux
xIcomp_brout avdd ibias dcomp ena_avdd vin_brout vbg_1v2 avss comparator
xIbiasgen avdd itest ibias ibg_200n vbg_1v2 isrc_sel_avdd ena_avdd avss ibias_gen
xIosc dvdd osc_ck osc_ena dvss rc_osc
xIinv0 out_unbuf dvss dvss dvdd dvdd net1 sky130_fd_sc_hd__inv_4
xIinv1 net1 dvss dvss dvdd dvdd out sky130_fd_sc_hd__inv_16
xIinv3 net3 dvss dvss dvdd dvdd net2 sky130_fd_sc_hd__inv_4
xIinv4 net2 dvss dvss dvdd dvdd vunder sky130_fd_sc_hd__inv_16
xIlvls3_7_ vtrip_decoded_7_ dvdd avss avss avdd avdd vtrip_decoded_avdd_7_ sky130_fd_sc_hvl__lsbuflv2hv_1
xIlvls3_6_ vtrip_decoded_6_ dvdd avss avss avdd avdd vtrip_decoded_avdd_6_ sky130_fd_sc_hvl__lsbuflv2hv_1
xIlvls3_5_ vtrip_decoded_5_ dvdd avss avss avdd avdd vtrip_decoded_avdd_5_ sky130_fd_sc_hvl__lsbuflv2hv_1
xIlvls3_4_ vtrip_decoded_4_ dvdd avss avss avdd avdd vtrip_decoded_avdd_4_ sky130_fd_sc_hvl__lsbuflv2hv_1
xIlvls3_3_ vtrip_decoded_3_ dvdd avss avss avdd avdd vtrip_decoded_avdd_3_ sky130_fd_sc_hvl__lsbuflv2hv_1
xIlvls3_2_ vtrip_decoded_2_ dvdd avss avss avdd avdd vtrip_decoded_avdd_2_ sky130_fd_sc_hvl__lsbuflv2hv_1
xIlvls3_1_ vtrip_decoded_1_ dvdd avss avss avdd avdd vtrip_decoded_avdd_1_ sky130_fd_sc_hvl__lsbuflv2hv_1
xIlvls3_0_ vtrip_decoded_0_ dvdd avss avss avdd avdd vtrip_decoded_avdd_0_ sky130_fd_sc_hvl__lsbuflv2hv_1
xIcomp_brout1 avdd ibias net4 ena_avdd vin_vunder vbg_1v2 avss comparator
xIlvls5 net4 dvdd avss avss avdd avdd net5 sky130_fd_sc_hvl__lsbufhv2lv_1
xIinv2 net5 dvss dvss dvdd dvdd net3 sky130_fd_sc_hd__inv_4
.ends


* expanding   symbol:  rstring_mux.sym # of pins=9
** sym_path: /home/rtsang/chipalooza/sky130_ajc_ip__brownout/xschem/rstring_mux.sym
** sch_path: /home/rtsang/chipalooza/sky130_ajc_ip__brownout/xschem/rstring_mux.sch
.subckt rstring_mux avdd vout_brout otrip_decoded_avdd_7_ otrip_decoded_avdd_6_ otrip_decoded_avdd_5_ otrip_decoded_avdd_4_
+ otrip_decoded_avdd_3_ otrip_decoded_avdd_2_ otrip_decoded_avdd_1_ otrip_decoded_avdd_0_ vtrip_decoded_avdd_7_ vtrip_decoded_avdd_6_
+ vtrip_decoded_avdd_5_ vtrip_decoded_avdd_4_ vtrip_decoded_avdd_3_ vtrip_decoded_avdd_2_ vtrip_decoded_avdd_1_ vtrip_decoded_avdd_0_ dvdd dvss
+ vout_vunder ena avss
*.ipin avdd
*.ipin avss
*.opin vout_brout
*.ipin ena
*.ipin
*+ otrip_decoded_avdd_7_,otrip_decoded_avdd_6_,otrip_decoded_avdd_5_,otrip_decoded_avdd_4_,otrip_decoded_avdd_3_,otrip_decoded_avdd_2_,otrip_decoded_avdd_1_,otrip_decoded_avdd_0_
*.ipin dvss
*.ipin dvdd
*.opin vout_vunder
*.ipin
*+ vtrip_decoded_avdd_7_,vtrip_decoded_avdd_6_,vtrip_decoded_avdd_5_,vtrip_decoded_avdd_4_,vtrip_decoded_avdd_3_,vtrip_decoded_avdd_2_,vtrip_decoded_avdd_1_,vtrip_decoded_avdd_0_
XR1 net2 net3 avss sky130_fd_pr__res_xhigh_po W=2 L=50 mult=1 m=1
XR2 net3 net4 avss sky130_fd_pr__res_xhigh_po W=2 L=50 mult=1 m=1
XR0 net1 net2 avss sky130_fd_pr__res_xhigh_po W=2 L=50 mult=1 m=1
XR3 net4 net5 avss sky130_fd_pr__res_xhigh_po W=2 L=50 mult=1 m=1
XR4 net5 net6 avss sky130_fd_pr__res_xhigh_po W=2 L=50 mult=1 m=1
XR5 net6 net7 avss sky130_fd_pr__res_xhigh_po W=2 L=50 mult=1 m=1
XR6 net7 net8 avss sky130_fd_pr__res_xhigh_po W=2 L=50 mult=1 m=1
XR7 net8 net9 avss sky130_fd_pr__res_xhigh_po W=2 L=50 mult=1 m=1
XR8 net9 net10 avss sky130_fd_pr__res_xhigh_po W=2 L=50 mult=1 m=1
XR9 net10 net11 avss sky130_fd_pr__res_xhigh_po W=2 L=50 mult=1 m=1
XR10 net11 net12 avss sky130_fd_pr__res_xhigh_po W=2 L=50 mult=1 m=1
XR11 net12 net13 avss sky130_fd_pr__res_xhigh_po W=2 L=50 mult=1 m=1
XR12 net13 net14 avss sky130_fd_pr__res_xhigh_po W=2 L=50 mult=1 m=1
XR13 net14 net15 avss sky130_fd_pr__res_xhigh_po W=2 L=50 mult=1 m=1
XR14 net15 net16 avss sky130_fd_pr__res_xhigh_po W=2 L=50 mult=1 m=1
XR15 net16 net17 avss sky130_fd_pr__res_xhigh_po W=2 L=50 mult=1 m=1
XR16 net17 net18 avss sky130_fd_pr__res_xhigh_po W=2 L=50 mult=1 m=1
XR17 net18 net19 avss sky130_fd_pr__res_xhigh_po W=2 L=50 mult=1 m=1
XR18 net19 net20 avss sky130_fd_pr__res_xhigh_po W=2 L=50 mult=1 m=1
XR19 net20 net21 avss sky130_fd_pr__res_xhigh_po W=2 L=50 mult=1 m=1
XR20 net21 net22 avss sky130_fd_pr__res_xhigh_po W=2 L=50 mult=1 m=1
XR21 net22 net23 avss sky130_fd_pr__res_xhigh_po W=2 L=50 mult=1 m=1
XR22 net23 net24 avss sky130_fd_pr__res_xhigh_po W=2 L=50 mult=1 m=1
XR23 net24 net25 avss sky130_fd_pr__res_xhigh_po W=2 L=50 mult=1 m=1
XR24 net25 net26 avss sky130_fd_pr__res_xhigh_po W=2 L=50 mult=1 m=1
XR25 net26 net27 avss sky130_fd_pr__res_xhigh_po W=2 L=50 mult=1 m=1
XR26 net27 net28 avss sky130_fd_pr__res_xhigh_po W=2 L=50 mult=1 m=1
XR27 net28 vtrip7 avss sky130_fd_pr__res_xhigh_po W=2 L=50 mult=1 m=1
XR28 vtrip7 vtrip6 avss sky130_fd_pr__res_xhigh_po W=2 L=50 mult=1 m=1
XR29 vtrip6 vtrip5 avss sky130_fd_pr__res_xhigh_po W=2 L=50 mult=1 m=1
XR30 vtrip5 vtrip4 avss sky130_fd_pr__res_xhigh_po W=2 L=50 mult=1 m=1
XR31 vtrip4 vtrip3 avss sky130_fd_pr__res_xhigh_po W=2 L=50 mult=1 m=1
XR32 vtrip3 vtrip2 avss sky130_fd_pr__res_xhigh_po W=2 L=50 mult=1 m=1
XR33 vtrip2 vtrip1 avss sky130_fd_pr__res_xhigh_po W=2 L=50 mult=1 m=1
XR34 vtrip1 vtrip0 avss sky130_fd_pr__res_xhigh_po W=2 L=50 mult=1 m=1
XR35 vtrip0 net29 avss sky130_fd_pr__res_xhigh_po W=2 L=50 mult=1 m=1
XR36 net29 net30 avss sky130_fd_pr__res_xhigh_po W=2 L=50 mult=1 m=1
XR37 net30 net31 avss sky130_fd_pr__res_xhigh_po W=2 L=50 mult=1 m=1
XR38 net31 net32 avss sky130_fd_pr__res_xhigh_po W=2 L=50 mult=1 m=1
XR39 net32 net33 avss sky130_fd_pr__res_xhigh_po W=2 L=50 mult=1 m=1
XR40 net33 net34 avss sky130_fd_pr__res_xhigh_po W=2 L=50 mult=1 m=1
XR41 net34 net35 avss sky130_fd_pr__res_xhigh_po W=2 L=50 mult=1 m=1
XR42 net35 net36 avss sky130_fd_pr__res_xhigh_po W=2 L=50 mult=1 m=1
XR43 net36 net37 avss sky130_fd_pr__res_xhigh_po W=2 L=50 mult=1 m=1
XR44 net37 net38 avss sky130_fd_pr__res_xhigh_po W=2 L=50 mult=1 m=1
XR45 net38 net39 avss sky130_fd_pr__res_xhigh_po W=2 L=50 mult=1 m=1
XR46 net39 net40 avss sky130_fd_pr__res_xhigh_po W=2 L=50 mult=1 m=1
XR47 net40 net41 avss sky130_fd_pr__res_xhigh_po W=2 L=50 mult=1 m=1
XR48 net41 net42 avss sky130_fd_pr__res_xhigh_po W=2 L=50 mult=1 m=1
XR49 net42 net43 avss sky130_fd_pr__res_xhigh_po W=2 L=50 mult=1 m=1
XR50 net43 net44 avss sky130_fd_pr__res_xhigh_po W=2 L=50 mult=1 m=1
XR51 net44 net45 avss sky130_fd_pr__res_xhigh_po W=2 L=50 mult=1 m=1
XR52 net45 net46 avss sky130_fd_pr__res_xhigh_po W=2 L=50 mult=1 m=1
XR53 net46 net47 avss sky130_fd_pr__res_xhigh_po W=2 L=50 mult=1 m=1
XR54 net47 net48 avss sky130_fd_pr__res_xhigh_po W=2 L=50 mult=1 m=1
XR55 net48 net49 avss sky130_fd_pr__res_xhigh_po W=2 L=50 mult=1 m=1
XR56 net49 net50 avss sky130_fd_pr__res_xhigh_po W=2 L=50 mult=1 m=1
XR57 net50 net51 avss sky130_fd_pr__res_xhigh_po W=2 L=50 mult=1 m=1
XR58 net51 net52 avss sky130_fd_pr__res_xhigh_po W=2 L=50 mult=1 m=1
XR59 net52 net53 avss sky130_fd_pr__res_xhigh_po W=2 L=50 mult=1 m=1
XR60 net53 net54 avss sky130_fd_pr__res_xhigh_po W=2 L=50 mult=1 m=1
XR61 net54 net55 avss sky130_fd_pr__res_xhigh_po W=2 L=50 mult=1 m=1
XR62 net55 net56 avss sky130_fd_pr__res_xhigh_po W=2 L=50 mult=1 m=1
XR63 net56 net57 avss sky130_fd_pr__res_xhigh_po W=2 L=50 mult=1 m=1
XR64 net57 net58 avss sky130_fd_pr__res_xhigh_po W=2 L=50 mult=1 m=1
XR65 net58 net59 avss sky130_fd_pr__res_xhigh_po W=2 L=50 mult=1 m=1
XR66 net59 net60 avss sky130_fd_pr__res_xhigh_po W=2 L=50 mult=1 m=1
XR67 net60 net61 avss sky130_fd_pr__res_xhigh_po W=2 L=50 mult=1 m=1
XR68 net61 net62 avss sky130_fd_pr__res_xhigh_po W=2 L=50 mult=1 m=1
XR69 net62 avdd avss sky130_fd_pr__res_xhigh_po W=2 L=50 mult=1 m=1
XMtp_7_ vtrip7 otrip_decoded_b_avdd_7_ vout_brout avdd sky130_fd_pr__pfet_g5v0d10v5 L=0.6 W=5 nf=1 ad='int((nf+1)/2) * W/nf * 0.29'
+ as='int((nf+2)/2) * W/nf * 0.29' pd='2*int((nf+1)/2) * (W/nf + 0.29)' ps='2*int((nf+2)/2) * (W/nf + 0.29)' nrd='0.29 / W' nrs='0.29 / W'
+ sa=0 sb=0 sd=0 mult=2 m=2
XMtp_6_ vtrip6 otrip_decoded_b_avdd_6_ vout_brout avdd sky130_fd_pr__pfet_g5v0d10v5 L=0.6 W=5 nf=1 ad='int((nf+1)/2) * W/nf * 0.29'
+ as='int((nf+2)/2) * W/nf * 0.29' pd='2*int((nf+1)/2) * (W/nf + 0.29)' ps='2*int((nf+2)/2) * (W/nf + 0.29)' nrd='0.29 / W' nrs='0.29 / W'
+ sa=0 sb=0 sd=0 mult=2 m=2
XMtp_5_ vtrip5 otrip_decoded_b_avdd_5_ vout_brout avdd sky130_fd_pr__pfet_g5v0d10v5 L=0.6 W=5 nf=1 ad='int((nf+1)/2) * W/nf * 0.29'
+ as='int((nf+2)/2) * W/nf * 0.29' pd='2*int((nf+1)/2) * (W/nf + 0.29)' ps='2*int((nf+2)/2) * (W/nf + 0.29)' nrd='0.29 / W' nrs='0.29 / W'
+ sa=0 sb=0 sd=0 mult=2 m=2
XMtp_4_ vtrip4 otrip_decoded_b_avdd_4_ vout_brout avdd sky130_fd_pr__pfet_g5v0d10v5 L=0.6 W=5 nf=1 ad='int((nf+1)/2) * W/nf * 0.29'
+ as='int((nf+2)/2) * W/nf * 0.29' pd='2*int((nf+1)/2) * (W/nf + 0.29)' ps='2*int((nf+2)/2) * (W/nf + 0.29)' nrd='0.29 / W' nrs='0.29 / W'
+ sa=0 sb=0 sd=0 mult=2 m=2
XMtp_3_ vtrip3 otrip_decoded_b_avdd_3_ vout_brout avdd sky130_fd_pr__pfet_g5v0d10v5 L=0.6 W=5 nf=1 ad='int((nf+1)/2) * W/nf * 0.29'
+ as='int((nf+2)/2) * W/nf * 0.29' pd='2*int((nf+1)/2) * (W/nf + 0.29)' ps='2*int((nf+2)/2) * (W/nf + 0.29)' nrd='0.29 / W' nrs='0.29 / W'
+ sa=0 sb=0 sd=0 mult=2 m=2
XMtp_2_ vtrip2 otrip_decoded_b_avdd_2_ vout_brout avdd sky130_fd_pr__pfet_g5v0d10v5 L=0.6 W=5 nf=1 ad='int((nf+1)/2) * W/nf * 0.29'
+ as='int((nf+2)/2) * W/nf * 0.29' pd='2*int((nf+1)/2) * (W/nf + 0.29)' ps='2*int((nf+2)/2) * (W/nf + 0.29)' nrd='0.29 / W' nrs='0.29 / W'
+ sa=0 sb=0 sd=0 mult=2 m=2
XMtp_1_ vtrip1 otrip_decoded_b_avdd_1_ vout_brout avdd sky130_fd_pr__pfet_g5v0d10v5 L=0.6 W=5 nf=1 ad='int((nf+1)/2) * W/nf * 0.29'
+ as='int((nf+2)/2) * W/nf * 0.29' pd='2*int((nf+1)/2) * (W/nf + 0.29)' ps='2*int((nf+2)/2) * (W/nf + 0.29)' nrd='0.29 / W' nrs='0.29 / W'
+ sa=0 sb=0 sd=0 mult=2 m=2
XMtp_0_ vtrip0 otrip_decoded_b_avdd_0_ vout_brout avdd sky130_fd_pr__pfet_g5v0d10v5 L=0.6 W=5 nf=1 ad='int((nf+1)/2) * W/nf * 0.29'
+ as='int((nf+2)/2) * W/nf * 0.29' pd='2*int((nf+1)/2) * (W/nf + 0.29)' ps='2*int((nf+2)/2) * (W/nf + 0.29)' nrd='0.29 / W' nrs='0.29 / W'
+ sa=0 sb=0 sd=0 mult=2 m=2
XMtn_7_ vout_brout otrip_decoded_avdd_7_ vtrip7 avss sky130_fd_pr__nfet_g5v0d10v5 L=0.6 W=5 nf=1 ad='int((nf+1)/2) * W/nf * 0.29' as='int((nf+2)/2) * W/nf * 0.29'
+ pd='2*int((nf+1)/2) * (W/nf + 0.29)' ps='2*int((nf+2)/2) * (W/nf + 0.29)' nrd='0.29 / W' nrs='0.29 / W' sa=0 sb=0 sd=0 mult=2 m=2
XMtn_6_ vout_brout otrip_decoded_avdd_6_ vtrip6 avss sky130_fd_pr__nfet_g5v0d10v5 L=0.6 W=5 nf=1 ad='int((nf+1)/2) * W/nf * 0.29' as='int((nf+2)/2) * W/nf * 0.29'
+ pd='2*int((nf+1)/2) * (W/nf + 0.29)' ps='2*int((nf+2)/2) * (W/nf + 0.29)' nrd='0.29 / W' nrs='0.29 / W' sa=0 sb=0 sd=0 mult=2 m=2
XMtn_5_ vout_brout otrip_decoded_avdd_5_ vtrip5 avss sky130_fd_pr__nfet_g5v0d10v5 L=0.6 W=5 nf=1 ad='int((nf+1)/2) * W/nf * 0.29' as='int((nf+2)/2) * W/nf * 0.29'
+ pd='2*int((nf+1)/2) * (W/nf + 0.29)' ps='2*int((nf+2)/2) * (W/nf + 0.29)' nrd='0.29 / W' nrs='0.29 / W' sa=0 sb=0 sd=0 mult=2 m=2
XMtn_4_ vout_brout otrip_decoded_avdd_4_ vtrip4 avss sky130_fd_pr__nfet_g5v0d10v5 L=0.6 W=5 nf=1 ad='int((nf+1)/2) * W/nf * 0.29' as='int((nf+2)/2) * W/nf * 0.29'
+ pd='2*int((nf+1)/2) * (W/nf + 0.29)' ps='2*int((nf+2)/2) * (W/nf + 0.29)' nrd='0.29 / W' nrs='0.29 / W' sa=0 sb=0 sd=0 mult=2 m=2
XMtn_3_ vout_brout otrip_decoded_avdd_3_ vtrip3 avss sky130_fd_pr__nfet_g5v0d10v5 L=0.6 W=5 nf=1 ad='int((nf+1)/2) * W/nf * 0.29' as='int((nf+2)/2) * W/nf * 0.29'
+ pd='2*int((nf+1)/2) * (W/nf + 0.29)' ps='2*int((nf+2)/2) * (W/nf + 0.29)' nrd='0.29 / W' nrs='0.29 / W' sa=0 sb=0 sd=0 mult=2 m=2
XMtn_2_ vout_brout otrip_decoded_avdd_2_ vtrip2 avss sky130_fd_pr__nfet_g5v0d10v5 L=0.6 W=5 nf=1 ad='int((nf+1)/2) * W/nf * 0.29' as='int((nf+2)/2) * W/nf * 0.29'
+ pd='2*int((nf+1)/2) * (W/nf + 0.29)' ps='2*int((nf+2)/2) * (W/nf + 0.29)' nrd='0.29 / W' nrs='0.29 / W' sa=0 sb=0 sd=0 mult=2 m=2
XMtn_1_ vout_brout otrip_decoded_avdd_1_ vtrip1 avss sky130_fd_pr__nfet_g5v0d10v5 L=0.6 W=5 nf=1 ad='int((nf+1)/2) * W/nf * 0.29' as='int((nf+2)/2) * W/nf * 0.29'
+ pd='2*int((nf+1)/2) * (W/nf + 0.29)' ps='2*int((nf+2)/2) * (W/nf + 0.29)' nrd='0.29 / W' nrs='0.29 / W' sa=0 sb=0 sd=0 mult=2 m=2
XMtn_0_ vout_brout otrip_decoded_avdd_0_ vtrip0 avss sky130_fd_pr__nfet_g5v0d10v5 L=0.6 W=5 nf=1 ad='int((nf+1)/2) * W/nf * 0.29' as='int((nf+2)/2) * W/nf * 0.29'
+ pd='2*int((nf+1)/2) * (W/nf + 0.29)' ps='2*int((nf+2)/2) * (W/nf + 0.29)' nrd='0.29 / W' nrs='0.29 / W' sa=0 sb=0 sd=0 mult=2 m=2
XMena net1 ena avss avss sky130_fd_pr__nfet_g5v0d10v5 L=0.6 W=5 nf=1 ad='int((nf+1)/2) * W/nf * 0.29' as='int((nf+2)/2) * W/nf * 0.29'
+ pd='2*int((nf+1)/2) * (W/nf + 0.29)' ps='2*int((nf+2)/2) * (W/nf + 0.29)' nrd='0.29 / W' nrs='0.29 / W' sa=0 sb=0 sd=0 mult=16 m=16
xIinv_7_ otrip_decoded_avdd_7_ avss avss avdd avdd otrip_decoded_b_avdd_7_ sky130_fd_sc_hvl__inv_1
xIinv_6_ otrip_decoded_avdd_6_ avss avss avdd avdd otrip_decoded_b_avdd_6_ sky130_fd_sc_hvl__inv_1
xIinv_5_ otrip_decoded_avdd_5_ avss avss avdd avdd otrip_decoded_b_avdd_5_ sky130_fd_sc_hvl__inv_1
xIinv_4_ otrip_decoded_avdd_4_ avss avss avdd avdd otrip_decoded_b_avdd_4_ sky130_fd_sc_hvl__inv_1
xIinv_3_ otrip_decoded_avdd_3_ avss avss avdd avdd otrip_decoded_b_avdd_3_ sky130_fd_sc_hvl__inv_1
xIinv_2_ otrip_decoded_avdd_2_ avss avss avdd avdd otrip_decoded_b_avdd_2_ sky130_fd_sc_hvl__inv_1
xIinv_1_ otrip_decoded_avdd_1_ avss avss avdd avdd otrip_decoded_b_avdd_1_ sky130_fd_sc_hvl__inv_1
xIinv_0_ otrip_decoded_avdd_0_ avss avss avdd avdd otrip_decoded_b_avdd_0_ sky130_fd_sc_hvl__inv_1
XMtp1_7_ vtrip7 vtrip_decoded_b_avdd_7_ vout_vunder avdd sky130_fd_pr__pfet_g5v0d10v5 L=0.6 W=5 nf=1 ad='int((nf+1)/2) * W/nf * 0.29'
+ as='int((nf+2)/2) * W/nf * 0.29' pd='2*int((nf+1)/2) * (W/nf + 0.29)' ps='2*int((nf+2)/2) * (W/nf + 0.29)' nrd='0.29 / W' nrs='0.29 / W'
+ sa=0 sb=0 sd=0 mult=2 m=2
XMtp1_6_ vtrip6 vtrip_decoded_b_avdd_6_ vout_vunder avdd sky130_fd_pr__pfet_g5v0d10v5 L=0.6 W=5 nf=1 ad='int((nf+1)/2) * W/nf * 0.29'
+ as='int((nf+2)/2) * W/nf * 0.29' pd='2*int((nf+1)/2) * (W/nf + 0.29)' ps='2*int((nf+2)/2) * (W/nf + 0.29)' nrd='0.29 / W' nrs='0.29 / W'
+ sa=0 sb=0 sd=0 mult=2 m=2
XMtp1_5_ vtrip5 vtrip_decoded_b_avdd_5_ vout_vunder avdd sky130_fd_pr__pfet_g5v0d10v5 L=0.6 W=5 nf=1 ad='int((nf+1)/2) * W/nf * 0.29'
+ as='int((nf+2)/2) * W/nf * 0.29' pd='2*int((nf+1)/2) * (W/nf + 0.29)' ps='2*int((nf+2)/2) * (W/nf + 0.29)' nrd='0.29 / W' nrs='0.29 / W'
+ sa=0 sb=0 sd=0 mult=2 m=2
XMtp1_4_ vtrip4 vtrip_decoded_b_avdd_4_ vout_vunder avdd sky130_fd_pr__pfet_g5v0d10v5 L=0.6 W=5 nf=1 ad='int((nf+1)/2) * W/nf * 0.29'
+ as='int((nf+2)/2) * W/nf * 0.29' pd='2*int((nf+1)/2) * (W/nf + 0.29)' ps='2*int((nf+2)/2) * (W/nf + 0.29)' nrd='0.29 / W' nrs='0.29 / W'
+ sa=0 sb=0 sd=0 mult=2 m=2
XMtp1_3_ vtrip3 vtrip_decoded_b_avdd_3_ vout_vunder avdd sky130_fd_pr__pfet_g5v0d10v5 L=0.6 W=5 nf=1 ad='int((nf+1)/2) * W/nf * 0.29'
+ as='int((nf+2)/2) * W/nf * 0.29' pd='2*int((nf+1)/2) * (W/nf + 0.29)' ps='2*int((nf+2)/2) * (W/nf + 0.29)' nrd='0.29 / W' nrs='0.29 / W'
+ sa=0 sb=0 sd=0 mult=2 m=2
XMtp1_2_ vtrip2 vtrip_decoded_b_avdd_2_ vout_vunder avdd sky130_fd_pr__pfet_g5v0d10v5 L=0.6 W=5 nf=1 ad='int((nf+1)/2) * W/nf * 0.29'
+ as='int((nf+2)/2) * W/nf * 0.29' pd='2*int((nf+1)/2) * (W/nf + 0.29)' ps='2*int((nf+2)/2) * (W/nf + 0.29)' nrd='0.29 / W' nrs='0.29 / W'
+ sa=0 sb=0 sd=0 mult=2 m=2
XMtp1_1_ vtrip1 vtrip_decoded_b_avdd_1_ vout_vunder avdd sky130_fd_pr__pfet_g5v0d10v5 L=0.6 W=5 nf=1 ad='int((nf+1)/2) * W/nf * 0.29'
+ as='int((nf+2)/2) * W/nf * 0.29' pd='2*int((nf+1)/2) * (W/nf + 0.29)' ps='2*int((nf+2)/2) * (W/nf + 0.29)' nrd='0.29 / W' nrs='0.29 / W'
+ sa=0 sb=0 sd=0 mult=2 m=2
XMtp1_0_ vtrip0 vtrip_decoded_b_avdd_0_ vout_vunder avdd sky130_fd_pr__pfet_g5v0d10v5 L=0.6 W=5 nf=1 ad='int((nf+1)/2) * W/nf * 0.29'
+ as='int((nf+2)/2) * W/nf * 0.29' pd='2*int((nf+1)/2) * (W/nf + 0.29)' ps='2*int((nf+2)/2) * (W/nf + 0.29)' nrd='0.29 / W' nrs='0.29 / W'
+ sa=0 sb=0 sd=0 mult=2 m=2
XMtn1_7_ vout_vunder vtrip_decoded_avdd_7_ vtrip7 avss sky130_fd_pr__nfet_g5v0d10v5 L=0.6 W=5 nf=1 ad='int((nf+1)/2) * W/nf * 0.29'
+ as='int((nf+2)/2) * W/nf * 0.29' pd='2*int((nf+1)/2) * (W/nf + 0.29)' ps='2*int((nf+2)/2) * (W/nf + 0.29)' nrd='0.29 / W' nrs='0.29 / W'
+ sa=0 sb=0 sd=0 mult=2 m=2
XMtn1_6_ vout_vunder vtrip_decoded_avdd_6_ vtrip6 avss sky130_fd_pr__nfet_g5v0d10v5 L=0.6 W=5 nf=1 ad='int((nf+1)/2) * W/nf * 0.29'
+ as='int((nf+2)/2) * W/nf * 0.29' pd='2*int((nf+1)/2) * (W/nf + 0.29)' ps='2*int((nf+2)/2) * (W/nf + 0.29)' nrd='0.29 / W' nrs='0.29 / W'
+ sa=0 sb=0 sd=0 mult=2 m=2
XMtn1_5_ vout_vunder vtrip_decoded_avdd_5_ vtrip5 avss sky130_fd_pr__nfet_g5v0d10v5 L=0.6 W=5 nf=1 ad='int((nf+1)/2) * W/nf * 0.29'
+ as='int((nf+2)/2) * W/nf * 0.29' pd='2*int((nf+1)/2) * (W/nf + 0.29)' ps='2*int((nf+2)/2) * (W/nf + 0.29)' nrd='0.29 / W' nrs='0.29 / W'
+ sa=0 sb=0 sd=0 mult=2 m=2
XMtn1_4_ vout_vunder vtrip_decoded_avdd_4_ vtrip4 avss sky130_fd_pr__nfet_g5v0d10v5 L=0.6 W=5 nf=1 ad='int((nf+1)/2) * W/nf * 0.29'
+ as='int((nf+2)/2) * W/nf * 0.29' pd='2*int((nf+1)/2) * (W/nf + 0.29)' ps='2*int((nf+2)/2) * (W/nf + 0.29)' nrd='0.29 / W' nrs='0.29 / W'
+ sa=0 sb=0 sd=0 mult=2 m=2
XMtn1_3_ vout_vunder vtrip_decoded_avdd_3_ vtrip3 avss sky130_fd_pr__nfet_g5v0d10v5 L=0.6 W=5 nf=1 ad='int((nf+1)/2) * W/nf * 0.29'
+ as='int((nf+2)/2) * W/nf * 0.29' pd='2*int((nf+1)/2) * (W/nf + 0.29)' ps='2*int((nf+2)/2) * (W/nf + 0.29)' nrd='0.29 / W' nrs='0.29 / W'
+ sa=0 sb=0 sd=0 mult=2 m=2
XMtn1_2_ vout_vunder vtrip_decoded_avdd_2_ vtrip2 avss sky130_fd_pr__nfet_g5v0d10v5 L=0.6 W=5 nf=1 ad='int((nf+1)/2) * W/nf * 0.29'
+ as='int((nf+2)/2) * W/nf * 0.29' pd='2*int((nf+1)/2) * (W/nf + 0.29)' ps='2*int((nf+2)/2) * (W/nf + 0.29)' nrd='0.29 / W' nrs='0.29 / W'
+ sa=0 sb=0 sd=0 mult=2 m=2
XMtn1_1_ vout_vunder vtrip_decoded_avdd_1_ vtrip1 avss sky130_fd_pr__nfet_g5v0d10v5 L=0.6 W=5 nf=1 ad='int((nf+1)/2) * W/nf * 0.29'
+ as='int((nf+2)/2) * W/nf * 0.29' pd='2*int((nf+1)/2) * (W/nf + 0.29)' ps='2*int((nf+2)/2) * (W/nf + 0.29)' nrd='0.29 / W' nrs='0.29 / W'
+ sa=0 sb=0 sd=0 mult=2 m=2
XMtn1_0_ vout_vunder vtrip_decoded_avdd_0_ vtrip0 avss sky130_fd_pr__nfet_g5v0d10v5 L=0.6 W=5 nf=1 ad='int((nf+1)/2) * W/nf * 0.29'
+ as='int((nf+2)/2) * W/nf * 0.29' pd='2*int((nf+1)/2) * (W/nf + 0.29)' ps='2*int((nf+2)/2) * (W/nf + 0.29)' nrd='0.29 / W' nrs='0.29 / W'
+ sa=0 sb=0 sd=0 mult=2 m=2
xIinv1_7_ vtrip_decoded_avdd_7_ avss avss avdd avdd vtrip_decoded_b_avdd_7_ sky130_fd_sc_hvl__inv_1
xIinv1_6_ vtrip_decoded_avdd_6_ avss avss avdd avdd vtrip_decoded_b_avdd_6_ sky130_fd_sc_hvl__inv_1
xIinv1_5_ vtrip_decoded_avdd_5_ avss avss avdd avdd vtrip_decoded_b_avdd_5_ sky130_fd_sc_hvl__inv_1
xIinv1_4_ vtrip_decoded_avdd_4_ avss avss avdd avdd vtrip_decoded_b_avdd_4_ sky130_fd_sc_hvl__inv_1
xIinv1_3_ vtrip_decoded_avdd_3_ avss avss avdd avdd vtrip_decoded_b_avdd_3_ sky130_fd_sc_hvl__inv_1
xIinv1_2_ vtrip_decoded_avdd_2_ avss avss avdd avdd vtrip_decoded_b_avdd_2_ sky130_fd_sc_hvl__inv_1
xIinv1_1_ vtrip_decoded_avdd_1_ avss avss avdd avdd vtrip_decoded_b_avdd_1_ sky130_fd_sc_hvl__inv_1
xIinv1_0_ vtrip_decoded_avdd_0_ avss avss avdd avdd vtrip_decoded_b_avdd_0_ sky130_fd_sc_hvl__inv_1
.ends


* expanding   symbol:  comparator.sym # of pins=7
** sym_path: /home/rtsang/chipalooza/sky130_ajc_ip__brownout/xschem/comparator.sym
** sch_path: /home/rtsang/chipalooza/sky130_ajc_ip__brownout/xschem/comparator.sch
.subckt comparator avdd ibias out ena vinn vinp avss
*.ipin ena
*.ipin avdd
*.ipin avss
*.ipin ibias
*.ipin vinn
*.ipin vinp
*.opin out
XMb vn vn avss avss sky130_fd_pr__nfet_g5v0d10v5 L=8 W=1 nf=1 ad='int((nf+1)/2) * W/nf * 0.29' as='int((nf+2)/2) * W/nf * 0.29' pd='2*int((nf+1)/2) * (W/nf + 0.29)'
+ ps='2*int((nf+2)/2) * (W/nf + 0.29)' nrd='0.29 / W' nrs='0.29 / W' sa=0 sb=0 sd=0 mult=2 m=2
XMta vt vn avss avss sky130_fd_pr__nfet_g5v0d10v5 L=8 W=1 nf=1 ad='int((nf+1)/2) * W/nf * 0.29' as='int((nf+2)/2) * W/nf * 0.29' pd='2*int((nf+1)/2) * (W/nf + 0.29)'
+ ps='2*int((nf+2)/2) * (W/nf + 0.29)' nrd='0.29 / W' nrs='0.29 / W' sa=0 sb=0 sd=0 mult=2 m=2
XMl0 vn ena_b avss avss sky130_fd_pr__nfet_g5v0d10v5 L=1 W=1 nf=1 ad='int((nf+1)/2) * W/nf * 0.29' as='int((nf+2)/2) * W/nf * 0.29'
+ pd='2*int((nf+1)/2) * (W/nf + 0.29)' ps='2*int((nf+2)/2) * (W/nf + 0.29)' nrd='0.29 / W' nrs='0.29 / W' sa=0 sb=0 sd=0 mult=1 m=1
XMinv0 ena_b ena avss avss sky130_fd_pr__nfet_g5v0d10v5 L=1 W=1 nf=1 ad='int((nf+1)/2) * W/nf * 0.29' as='int((nf+2)/2) * W/nf * 0.29'
+ pd='2*int((nf+1)/2) * (W/nf + 0.29)' ps='2*int((nf+2)/2) * (W/nf + 0.29)' nrd='0.29 / W' nrs='0.29 / W' sa=0 sb=0 sd=0 mult=1 m=1
XMinv1 ena_b ena avdd avdd sky130_fd_pr__pfet_g5v0d10v5 L=1 W=1 nf=1 ad='int((nf+1)/2) * W/nf * 0.29' as='int((nf+2)/2) * W/nf * 0.29'
+ pd='2*int((nf+1)/2) * (W/nf + 0.29)' ps='2*int((nf+2)/2) * (W/nf + 0.29)' nrd='0.29 / W' nrs='0.29 / W' sa=0 sb=0 sd=0 mult=1 m=1
XMi0 vnn vinn vt vt sky130_fd_pr__nfet_g5v0d10v5 L=8 W=1 nf=1 ad='int((nf+1)/2) * W/nf * 0.29' as='int((nf+2)/2) * W/nf * 0.29' pd='2*int((nf+1)/2) * (W/nf + 0.29)'
+ ps='2*int((nf+2)/2) * (W/nf + 0.29)' nrd='0.29 / W' nrs='0.29 / W' sa=0 sb=0 sd=0 mult=4 m=4
XMi1 vpp vinp vt vt sky130_fd_pr__nfet_g5v0d10v5 L=8 W=1 nf=1 ad='int((nf+1)/2) * W/nf * 0.29' as='int((nf+2)/2) * W/nf * 0.29' pd='2*int((nf+1)/2) * (W/nf + 0.29)'
+ ps='2*int((nf+2)/2) * (W/nf + 0.29)' nrd='0.29 / W' nrs='0.29 / W' sa=0 sb=0 sd=0 mult=4 m=4
XMld1 vpp vpp avdd avdd sky130_fd_pr__pfet_g5v0d10v5 L=8 W=1 nf=1 ad='int((nf+1)/2) * W/nf * 0.29' as='int((nf+2)/2) * W/nf * 0.29'
+ pd='2*int((nf+1)/2) * (W/nf + 0.29)' ps='2*int((nf+2)/2) * (W/nf + 0.29)' nrd='0.29 / W' nrs='0.29 / W' sa=0 sb=0 sd=0 mult=2 m=2
XMh1 vnn vpp avdd avdd sky130_fd_pr__pfet_g5v0d10v5 L=4 W=1 nf=1 ad='int((nf+1)/2) * W/nf * 0.29' as='int((nf+2)/2) * W/nf * 0.29'
+ pd='2*int((nf+1)/2) * (W/nf + 0.29)' ps='2*int((nf+2)/2) * (W/nf + 0.29)' nrd='0.29 / W' nrs='0.29 / W' sa=0 sb=0 sd=0 mult=2 m=2
XMh0 vpp vnn avdd avdd sky130_fd_pr__pfet_g5v0d10v5 L=4 W=1 nf=1 ad='int((nf+1)/2) * W/nf * 0.29' as='int((nf+2)/2) * W/nf * 0.29'
+ pd='2*int((nf+1)/2) * (W/nf + 0.29)' ps='2*int((nf+2)/2) * (W/nf + 0.29)' nrd='0.29 / W' nrs='0.29 / W' sa=0 sb=0 sd=0 mult=2 m=2
XMld0 vnn vnn avdd avdd sky130_fd_pr__pfet_g5v0d10v5 L=8 W=1 nf=1 ad='int((nf+1)/2) * W/nf * 0.29' as='int((nf+2)/2) * W/nf * 0.29'
+ pd='2*int((nf+1)/2) * (W/nf + 0.29)' ps='2*int((nf+2)/2) * (W/nf + 0.29)' nrd='0.29 / W' nrs='0.29 / W' sa=0 sb=0 sd=0 mult=2 m=2
XMpp1 n0 vpp avdd avdd sky130_fd_pr__pfet_g5v0d10v5 L=8 W=1 nf=1 ad='int((nf+1)/2) * W/nf * 0.29' as='int((nf+2)/2) * W/nf * 0.29'
+ pd='2*int((nf+1)/2) * (W/nf + 0.29)' ps='2*int((nf+2)/2) * (W/nf + 0.29)' nrd='0.29 / W' nrs='0.29 / W' sa=0 sb=0 sd=0 mult=2 m=2
XMnn1 n0 vm avss avss sky130_fd_pr__nfet_g5v0d10v5 L=8 W=1 nf=1 ad='int((nf+1)/2) * W/nf * 0.29' as='int((nf+2)/2) * W/nf * 0.29' pd='2*int((nf+1)/2) * (W/nf + 0.29)'
+ ps='2*int((nf+2)/2) * (W/nf + 0.29)' nrd='0.29 / W' nrs='0.29 / W' sa=0 sb=0 sd=0 mult=2 m=2
XMpp0 vm vnn avdd avdd sky130_fd_pr__pfet_g5v0d10v5 L=8 W=1 nf=1 ad='int((nf+1)/2) * W/nf * 0.29' as='int((nf+2)/2) * W/nf * 0.29'
+ pd='2*int((nf+1)/2) * (W/nf + 0.29)' ps='2*int((nf+2)/2) * (W/nf + 0.29)' nrd='0.29 / W' nrs='0.29 / W' sa=0 sb=0 sd=0 mult=2 m=2