*SPEF "ieee 1481-1999"
*DESIGN "brownout_dig"
*DATE "23:20:18 Thursday April 11, 2024"
*VENDOR "The OpenROAD Project"
*PROGRAM "OpenROAD"
*VERSION "0889970d1790a2617e69f253221b8bd7626e51dc"
*DESIGN_FLOW "NAME_SCOPE LOCAL" "PIN_CAP NONE"
*DIVIDER /
*DELIMITER :
*BUS_DELIMITER []
*T_UNIT 1 NS
*C_UNIT 1 PF
*R_UNIT 1 OHM
*L_UNIT 1 HENRY

*NAME_MAP
*3 brout_filt
*4 dcomp
*5 ena
*6 force_dis_rc_osc
*7 force_ena_rc_osc
*8 force_short_oneshot
*9 osc_ck
*10 osc_ena
*11 otrip[0]
*12 otrip[1]
*13 otrip[2]
*14 otrip_decoded[0]
*15 otrip_decoded[1]
*16 otrip_decoded[2]
*17 otrip_decoded[3]
*18 otrip_decoded[4]
*19 otrip_decoded[5]
*20 otrip_decoded[6]
*21 otrip_decoded[7]
*22 outb_unbuf
*23 timed_out
*24 vtrip[0]
*25 vtrip[1]
*26 vtrip[2]
*27 vtrip_decoded[0]
*28 vtrip_decoded[1]
*29 vtrip_decoded[2]
*30 vtrip_decoded[3]
*31 vtrip_decoded[4]
*32 vtrip_decoded[5]
*33 vtrip_decoded[6]
*34 vtrip_decoded[7]
*35 _000_
*36 _001_
*37 _002_
*38 _003_
*39 _004_
*40 _005_
*41 _006_
*42 _007_
*43 _008_
*44 _009_
*45 _010_
*46 _011_
*47 _012_
*48 _013_
*49 _014_
*50 _015_
*51 _016_
*52 _017_
*53 _018_
*54 _019_
*55 _020_
*56 _021_
*57 _022_
*58 _023_
*59 _024_
*60 _025_
*61 _026_
*62 _027_
*63 _028_
*64 _029_
*65 _030_
*66 _031_
*67 _032_
*68 _033_
*69 _034_
*70 _035_
*71 _036_
*72 _037_
*73 _038_
*74 _039_
*75 _040_
*76 _041_
*77 _042_
*78 clknet_0_osc_ck
*79 clknet_1_0__leaf_osc_ck
*80 clknet_1_1__leaf_osc_ck
*81 clr_cnt
*82 clr_cnt_sb
*83 clr_cnt_sb_stg1
*84 cnt\[0\]
*85 cnt\[10\]
*86 cnt\[11\]
*87 cnt\[1\]
*88 cnt\[2\]
*89 cnt\[3\]
*90 cnt\[4\]
*91 cnt\[5\]
*92 cnt\[6\]
*93 cnt\[7\]
*94 cnt\[8\]
*95 cnt\[9\]
*96 dcomp_ena_rsb
*97 dcomp_retimed
*98 net1
*99 net10
*100 net11
*101 net12
*102 net13
*103 net14
*104 net15
*105 net16
*106 net17
*107 net18
*108 net19
*109 net2
*110 net20
*111 net21
*112 net22
*113 net23
*114 net24
*115 net25
*116 net26
*117 net27
*118 net28
*119 net29
*120 net3
*121 net30
*122 net31
*123 net32
*124 net33
*125 net34
*126 net35
*127 net36
*128 net37
*129 net38
*130 net39
*131 net4
*132 net5
*133 net6
*134 net7
*135 net8
*136 net9
*137 FILLER_0_0_15
*138 FILLER_0_0_23
*139 FILLER_0_0_3
*140 FILLER_0_0_43
*141 FILLER_0_0_55
*142 FILLER_0_0_79
*143 FILLER_0_0_85
*144 FILLER_0_0_91
*145 FILLER_0_10_3
*146 FILLER_0_10_37
*147 FILLER_0_11_11
*148 FILLER_0_11_3
*149 FILLER_0_11_34
*150 FILLER_0_11_52
*151 FILLER_0_11_57
*152 FILLER_0_11_75
*153 FILLER_0_12_19
*154 FILLER_0_12_27
*155 FILLER_0_12_61
*156 FILLER_0_12_7
*157 FILLER_0_12_85
*158 FILLER_0_12_93
*159 FILLER_0_13_15
*160 FILLER_0_13_23
*161 FILLER_0_13_3
*162 FILLER_0_13_31
*163 FILLER_0_13_43
*164 FILLER_0_13_55
*165 FILLER_0_13_57
*166 FILLER_0_13_69
*167 FILLER_0_13_81
*168 FILLER_0_13_93
*169 FILLER_0_14_15
*170 FILLER_0_14_29
*171 FILLER_0_14_3
*172 FILLER_0_14_69
*173 FILLER_0_14_79
*174 FILLER_0_14_83
*175 FILLER_0_14_85
*176 FILLER_0_14_93
*177 FILLER_0_15_27
*178 FILLER_0_15_29
*179 FILLER_0_15_3
*180 FILLER_0_15_37
*181 FILLER_0_15_57
*182 FILLER_0_15_65
*183 FILLER_0_15_72
*184 FILLER_0_15_85
*185 FILLER_0_15_93
*186 FILLER_0_1_15
*187 FILLER_0_1_27
*188 FILLER_0_1_3
*189 FILLER_0_1_31
*190 FILLER_0_1_44
*191 FILLER_0_1_57
*192 FILLER_0_1_85
*193 FILLER_0_1_89
*194 FILLER_0_2_23
*195 FILLER_0_2_27
*196 FILLER_0_2_29
*197 FILLER_0_2_38
*198 FILLER_0_2_50
*199 FILLER_0_2_62
*200 FILLER_0_2_74
*201 FILLER_0_2_82
*202 FILLER_0_2_85
*203 FILLER_0_2_93
*204 FILLER_0_3_16
*205 FILLER_0_3_43
*206 FILLER_0_3_48
*207 FILLER_0_3_57
*208 FILLER_0_3_6
*209 FILLER_0_3_69
*210 FILLER_0_3_81
*211 FILLER_0_4_23
*212 FILLER_0_4_37
*213 FILLER_0_4_60
*214 FILLER_0_4_82
*215 FILLER_0_4_92
*216 FILLER_0_5_3
*217 FILLER_0_5_39
*218 FILLER_0_5_72
*219 FILLER_0_6_29
*220 FILLER_0_6_55
*221 FILLER_0_6_6
*222 FILLER_0_6_92
*223 FILLER_0_7_11
*224 FILLER_0_7_15
*225 FILLER_0_7_3
*226 FILLER_0_7_54
*227 FILLER_0_7_69
*228 FILLER_0_7_77
*229 FILLER_0_8_15
*230 FILLER_0_8_23
*231 FILLER_0_8_29
*232 FILLER_0_8_3
*233 FILLER_0_8_39
*234 FILLER_0_8_63
*235 FILLER_0_9_15
*236 FILLER_0_9_19
*237 FILLER_0_9_3
*238 FILLER_0_9_49
*239 FILLER_0_9_55
*240 FILLER_0_9_71
*241 PHY_EDGE_ROW_0_Left_16
*242 PHY_EDGE_ROW_0_Right_0
*243 PHY_EDGE_ROW_10_Left_26
*244 PHY_EDGE_ROW_10_Right_10
*245 PHY_EDGE_ROW_11_Left_27
*246 PHY_EDGE_ROW_11_Right_11
*247 PHY_EDGE_ROW_12_Left_28
*248 PHY_EDGE_ROW_12_Right_12
*249 PHY_EDGE_ROW_13_Left_29
*250 PHY_EDGE_ROW_13_Right_13
*251 PHY_EDGE_ROW_14_Left_30
*252 PHY_EDGE_ROW_14_Right_14
*253 PHY_EDGE_ROW_15_Left_31
*254 PHY_EDGE_ROW_15_Right_15
*255 PHY_EDGE_ROW_1_Left_17
*256 PHY_EDGE_ROW_1_Right_1
*257 PHY_EDGE_ROW_2_Left_18
*258 PHY_EDGE_ROW_2_Right_2
*259 PHY_EDGE_ROW_3_Left_19
*260 PHY_EDGE_ROW_3_Right_3
*261 PHY_EDGE_ROW_4_Left_20
*262 PHY_EDGE_ROW_4_Right_4
*263 PHY_EDGE_ROW_5_Left_21
*264 PHY_EDGE_ROW_5_Right_5
*265 PHY_EDGE_ROW_6_Left_22
*266 PHY_EDGE_ROW_6_Right_6
*267 PHY_EDGE_ROW_7_Left_23
*268 PHY_EDGE_ROW_7_Right_7
*269 PHY_EDGE_ROW_8_Left_24
*270 PHY_EDGE_ROW_8_Right_8
*271 PHY_EDGE_ROW_9_Left_25
*272 PHY_EDGE_ROW_9_Right_9
*273 TAP_TAPCELL_ROW_0_32
*274 TAP_TAPCELL_ROW_0_33
*275 TAP_TAPCELL_ROW_0_34
*276 TAP_TAPCELL_ROW_10_48
*277 TAP_TAPCELL_ROW_10_49
*278 TAP_TAPCELL_ROW_11_50
*279 TAP_TAPCELL_ROW_12_51
*280 TAP_TAPCELL_ROW_12_52
*281 TAP_TAPCELL_ROW_13_53
*282 TAP_TAPCELL_ROW_14_54
*283 TAP_TAPCELL_ROW_14_55
*284 TAP_TAPCELL_ROW_15_56
*285 TAP_TAPCELL_ROW_15_57
*286 TAP_TAPCELL_ROW_15_58
*287 TAP_TAPCELL_ROW_1_35
*288 TAP_TAPCELL_ROW_2_36
*289 TAP_TAPCELL_ROW_2_37
*290 TAP_TAPCELL_ROW_3_38
*291 TAP_TAPCELL_ROW_4_39
*292 TAP_TAPCELL_ROW_4_40
*293 TAP_TAPCELL_ROW_5_41
*294 TAP_TAPCELL_ROW_6_42
*295 TAP_TAPCELL_ROW_6_43
*296 TAP_TAPCELL_ROW_7_44
*297 TAP_TAPCELL_ROW_8_45
*298 TAP_TAPCELL_ROW_8_46
*299 TAP_TAPCELL_ROW_9_47
*300 _043_
*301 _044_
*302 _045_
*303 _046_
*304 _047_
*305 _048_
*306 _049_
*307 _050_
*308 _051_
*309 _052_
*310 _053_
*311 _054_
*312 _055_
*313 _056_
*314 _057_
*315 _058_
*316 _059_
*317 _060_
*318 _061_
*319 _062_
*320 _063_
*321 _064_
*322 _065_
*323 _066_
*324 _067_
*325 _068_
*326 _069_
*327 _070_
*328 _071_
*329 _072_
*330 _073_
*331 _074_
*332 _075_
*333 _076_
*334 _077_
*335 _078_
*336 _079_
*337 _080_
*338 _081_
*339 _082_
*340 _083_
*341 _084_
*342 _085_
*343 _086_
*344 _087_
*345 _088_
*346 _089_
*347 _090_
*348 _091_
*349 _092_
*350 _093_
*351 _094_
*352 _095_
*353 _096_
*354 _097_
*355 _098_
*356 _099_
*357 _100_
*358 _101_
*359 _102_
*360 _103_
*361 _104_
*362 _105_
*363 _106_
*364 _107_
*365 _108_
*366 _109_
*367 _110_
*368 _111_
*369 _112_
*370 _113_
*371 _114_
*372 _115_
*373 _116_
*374 _117_
*375 _118_
*376 _118__34
*377 _119_
*378 _119__35
*379 _120_
*380 _121_
*381 clkbuf_0_osc_ck
*382 clkbuf_1_0__f_osc_ck
*383 clkbuf_1_1__f_osc_ck
*384 fanout32
*385 fanout33
*386 hold1
*387 hold2
*388 hold3
*389 hold4
*390 input1
*391 input10
*392 input11
*393 input12
*394 input2
*395 input3
*396 input4
*397 input5
*398 input6
*399 input7
*400 input8
*401 input9
*402 output13
*403 output14
*404 output15
*405 output16
*406 output17
*407 output18
*408 output19
*409 output20
*410 output21
*411 output22
*412 output23
*413 output24
*414 output25
*415 output26
*416 output27
*417 output28
*418 output29
*419 output30
*420 output31

*PORTS
brout_filt I
dcomp I
ena I
force_dis_rc_osc I
force_ena_rc_osc I
force_short_oneshot I
osc_ck I
osc_ena O
otrip[0] I
otrip[1] I
otrip[2] I
otrip_decoded[0] O
otrip_decoded[1] O
otrip_decoded[2] O
otrip_decoded[3] O
otrip_decoded[4] O
otrip_decoded[5] O
otrip_decoded[6] O
otrip_decoded[7] O
outb_unbuf O
timed_out O
vtrip[0] I
vtrip[1] I
vtrip[2] I
vtrip_decoded[0] O
vtrip_decoded[1] O
vtrip_decoded[2] O
vtrip_decoded[3] O
vtrip_decoded[4] O
vtrip_decoded[5] O
vtrip_decoded[6] O
vtrip_decoded[7] O

*D_NET *3 0.000407082
*CONN
*P brout_filt I
*I *390:A I *D sky130_fd_sc_hd__buf_1
*CAP
1 brout_filt 0.000198494
2 *390:A 0.000198494
3 *390:A *377:D 1.00941e-05
*RES
1 brout_filt *390:A 4.84677 
*END

*D_NET *4 0.000524586
*CONN
*P dcomp I
*I *394:A I *D sky130_fd_sc_hd__clkbuf_1
*CAP
1 dcomp 0.000215632
2 *394:A 0.000215632
3 *394:A outb_unbuf 4.66616e-05
4 *394:A *397:A 4.66616e-05
5 *394:A *113:44 0
*RES
1 dcomp *394:A 6.8037 
*END

*D_NET *5 0.000509408
*CONN
*P ena I
*I *395:A I *D sky130_fd_sc_hd__clkbuf_2
*CAP
1 ena 0.000236207
2 *395:A 0.000236207
3 *395:A *381:A 3.6993e-05
*RES
1 ena *395:A 6.73043 
*END

*D_NET *6 0.000988638
*CONN
*P force_dis_rc_osc I
*I *396:A I *D sky130_fd_sc_hd__clkbuf_1
*CAP
1 force_dis_rc_osc 0.000443211
2 *396:A 0.000443211
3 *396:A osc_ena 0.000102216
*RES
1 force_dis_rc_osc *396:A 5.42943 
*END

*D_NET *7 0.00133538
*CONN
*P force_ena_rc_osc I
*I *397:A I *D sky130_fd_sc_hd__clkbuf_1
*CAP
1 force_ena_rc_osc 0.000448228
2 *397:A 0.000448228
3 *397:A osc_ena 0.000102216
4 *397:A outb_unbuf 0
5 *397:A *311:A_N 4.60584e-05
6 *397:A *328:B 4.41463e-05
7 *397:A *328:C_N 4.99619e-05
8 *397:A *329:A3 2.05641e-05
9 *397:A *380:RESET_B 0
10 *397:A *97:12 0.000129314
11 *394:A *397:A 4.66616e-05
*RES
1 force_ena_rc_osc *397:A 9.4783 
*END

*D_NET *8 0.000621021
*CONN
*P force_short_oneshot I
*I *398:A I *D sky130_fd_sc_hd__buf_1
*CAP
1 force_short_oneshot 0.000263849
2 *398:A 0.000263849
3 *398:A outb_unbuf 4.66616e-05
4 *398:A timed_out 4.66616e-05
5 *398:A *309:A 0
6 *398:A *95:27 0
*RES
1 force_short_oneshot *398:A 7.5687 
*END

*D_NET *9 0.0038943
*CONN
*P osc_ck I
*I *381:A I *D sky130_fd_sc_hd__clkbuf_16
*CAP
1 osc_ck 0.00167466
2 *381:A 0.00167466
3 *381:A *338:A1 0.000395049
4 *381:A *338:A2 7.42989e-06
5 *381:A *338:A3 8.35106e-05
6 *381:A *338:B1 2.20014e-05
7 *381:A *124:16 0
8 *395:A *381:A 3.6993e-05
*RES
1 osc_ck *381:A 12.8755 
*END

*D_NET *10 0.000995181
*CONN
*P osc_ena O
*I *402:X O *D sky130_fd_sc_hd__buf_2
*CAP
1 osc_ena 0.000305055
2 *402:X 0.000305055
3 osc_ena *329:A2 0
4 osc_ena *329:A3 6.50568e-05
5 osc_ena *330:B 0
6 osc_ena *402:A 0.000115582
7 *396:A osc_ena 0.000102216
8 *397:A osc_ena 0.000102216
*RES
1 *402:X osc_ena 8.2783 
*END

*D_NET *11 0.0011402
*CONN
*P otrip[0] I
*I *399:A I *D sky130_fd_sc_hd__dlymetal6s2s_1
*CAP
1 otrip[0] 0.000462683
2 *399:A 0.000462683
3 *399:A otrip_decoded[2] 0.000164874
4 *399:A *405:A 4.99619e-05
*RES
1 otrip[0] *399:A 12.18 
*END

*D_NET *12 0.000773254
*CONN
*P otrip[1] I
*I *400:A I *D sky130_fd_sc_hd__dlymetal6s2s_1
*CAP
1 otrip[1] 0.000386627
2 *400:A 0.000386627
3 *400:A otrip_decoded[1] 0
4 *400:A *401:A 0
*RES
1 otrip[1] *400:A 10.455 
*END

*D_NET *13 0.0010605
*CONN
*P otrip[2] I
*I *401:A I *D sky130_fd_sc_hd__dlymetal6s2s_1
*CAP
1 otrip[2] 0.000486954
2 *401:A 0.000486954
3 *401:A otrip_decoded[4] 0
4 *401:A *135:32 8.65961e-05
5 *400:A *401:A 0
*RES
1 otrip[2] *401:A 12.075 
*END

*D_NET *14 0.000997525
*CONN
*P otrip_decoded[0] O
*I *403:X O *D sky130_fd_sc_hd__buf_2
*CAP
1 otrip_decoded[0] 0.000498763
2 *403:X 0.000498763
3 otrip_decoded[0] otrip_decoded[3] 0
*RES
1 *403:X otrip_decoded[0] 11.88 
*END

*D_NET *15 0.000965106
*CONN
*P otrip_decoded[1] O
*I *404:X O *D sky130_fd_sc_hd__buf_2
*CAP
1 otrip_decoded[1] 0.000457967
2 *404:X 0.000457967
3 otrip_decoded[1] otrip_decoded[2] 0
4 otrip_decoded[1] *404:A 3.00381e-05
5 otrip_decoded[1] *135:14 1.91342e-05
6 *400:A otrip_decoded[1] 0
*RES
1 *404:X otrip_decoded[1] 10.875 
*END

*D_NET *16 0.00109706
*CONN
*P otrip_decoded[2] O
*I *405:X O *D sky130_fd_sc_hd__buf_2
*CAP
1 otrip_decoded[2] 0.000466093
2 *405:X 0.000466093
3 otrip_decoded[1] otrip_decoded[2] 0
4 *399:A otrip_decoded[2] 0.000164874
*RES
1 *405:X otrip_decoded[2] 11.22 
*END

*D_NET *17 0.000880816
*CONN
*P otrip_decoded[3] O
*I *406:X O *D sky130_fd_sc_hd__buf_2
*CAP
1 otrip_decoded[3] 0.000431216
2 *406:X 0.000431216
3 otrip_decoded[3] otrip_decoded[7] 0
4 otrip_decoded[3] *406:A 1.83847e-05
5 otrip_decoded[0] otrip_decoded[3] 0
*RES
1 *406:X otrip_decoded[3] 10.53 
*END

*D_NET *18 0.00137965
*CONN
*P otrip_decoded[4] O
*I *407:X O *D sky130_fd_sc_hd__buf_2
*CAP
1 otrip_decoded[4] 0.000544888
2 *407:X 0.000544888
3 otrip_decoded[4] otrip_decoded[6] 0.00025984
4 otrip_decoded[4] *409:A 3.00381e-05
5 *401:A otrip_decoded[4] 0
*RES
1 *407:X otrip_decoded[4] 14.73 
*END

*D_NET *19 0.000996658
*CONN
*P otrip_decoded[5] O
*I *408:X O *D sky130_fd_sc_hd__buf_2
*CAP
1 otrip_decoded[5] 0.00048331
2 *408:X 0.00048331
3 otrip_decoded[5] otrip_decoded[6] 0
4 otrip_decoded[5] otrip_decoded[7] 0
5 otrip_decoded[5] *408:A 3.00381e-05
*RES
1 *408:X otrip_decoded[5] 11.325 
*END

*D_NET *20 0.00131343
*CONN
*P otrip_decoded[6] O
*I *409:X O *D sky130_fd_sc_hd__buf_2
*CAP
1 otrip_decoded[6] 0.000460976
2 *409:X 0.000460976
3 otrip_decoded[6] *407:A 3.05295e-05
4 otrip_decoded[6] *408:A 2.75229e-05
5 otrip_decoded[6] *409:A 7.35813e-05
6 otrip_decoded[4] otrip_decoded[6] 0.00025984
7 otrip_decoded[5] otrip_decoded[6] 0
*RES
1 *409:X otrip_decoded[6] 13.275 
*END

*D_NET *21 0.000885308
*CONN
*P otrip_decoded[7] O
*I *410:X O *D sky130_fd_sc_hd__buf_2
*CAP
1 otrip_decoded[7] 0.000417279
2 *410:X 0.000417279
3 otrip_decoded[7] *406:A 5.0751e-05
4 otrip_decoded[3] otrip_decoded[7] 0
5 otrip_decoded[5] otrip_decoded[7] 0
*RES
1 *410:X otrip_decoded[7] 10.53 
*END

*D_NET *22 0.000609446
*CONN
*P outb_unbuf O
*I *411:X O *D sky130_fd_sc_hd__buf_2
*CAP
1 outb_unbuf 0.000237225
2 *411:X 0.000237225
3 outb_unbuf timed_out 0
4 outb_unbuf *309:A 9.26907e-06
5 outb_unbuf *309:B 0
6 outb_unbuf *411:A 3.24046e-05
7 *394:A outb_unbuf 4.66616e-05
8 *397:A outb_unbuf 0
9 *398:A outb_unbuf 4.66616e-05
*RES
1 *411:X outb_unbuf 5.7283 
*END

*D_NET *23 0.000562981
*CONN
*P timed_out O
*I *412:X O *D sky130_fd_sc_hd__buf_2
*CAP
1 timed_out 0.000254871
2 *412:X 0.000254871
3 timed_out *356:A2 0
4 timed_out *95:27 6.57653e-06
5 outb_unbuf timed_out 0
6 *398:A timed_out 4.66616e-05
*RES
1 *412:X timed_out 5.2183 
*END

*D_NET *24 0.00108063
*CONN
*P vtrip[0] I
*I *391:A I *D sky130_fd_sc_hd__dlymetal6s2s_1
*CAP
1 vtrip[0] 0.000540313
2 *391:A 0.000540313
3 *391:A vtrip_decoded[3] 0
*RES
1 vtrip[0] *391:A 12.75 
*END

*D_NET *25 0.000940333
*CONN
*P vtrip[1] I
*I *392:A I *D sky130_fd_sc_hd__dlymetal6s2s_1
*CAP
1 vtrip[1] 0.000470167
2 *392:A 0.000470167
3 *392:A *393:A 0
*RES
1 vtrip[1] *392:A 11.715 
*END

*D_NET *26 0.000894546
*CONN
*P vtrip[2] I
*I *393:A I *D sky130_fd_sc_hd__dlymetal6s2s_1
*CAP
1 vtrip[2] 0.000447273
2 *393:A 0.000447273
3 *393:A vtrip_decoded[2] 0
4 *392:A *393:A 0
*RES
1 vtrip[2] *393:A 11.37 
*END

*D_NET *27 0.000918063
*CONN
*P vtrip_decoded[0] O
*I *413:X O *D sky130_fd_sc_hd__clkbuf_4
*CAP
1 vtrip_decoded[0] 0.000459032
2 *413:X 0.000459032
3 vtrip_decoded[0] vtrip_decoded[4] 0
4 vtrip_decoded[0] vtrip_decoded[6] 0
*RES
1 *413:X vtrip_decoded[0] 11.415 
*END

*D_NET *28 0.00099307
*CONN
*P vtrip_decoded[1] O
*I *414:X O *D sky130_fd_sc_hd__clkbuf_4
*CAP
1 vtrip_decoded[1] 0.000496535
2 *414:X 0.000496535
3 vtrip_decoded[1] vtrip_decoded[2] 0
4 vtrip_decoded[1] vtrip_decoded[4] 0
*RES
1 *414:X vtrip_decoded[1] 11.55 
*END

*D_NET *29 0.00146502
*CONN
*P vtrip_decoded[2] O
*I *415:X O *D sky130_fd_sc_hd__clkbuf_4
*CAP
1 vtrip_decoded[2] 0.000672203
2 *415:X 0.000672203
3 vtrip_decoded[2] *414:A 0
4 vtrip_decoded[2] *101:12 0.000120616
5 vtrip_decoded[1] vtrip_decoded[2] 0
6 *393:A vtrip_decoded[2] 0
*RES
1 *415:X vtrip_decoded[2] 14.625 
*END

*D_NET *30 0.00125784
*CONN
*P vtrip_decoded[3] O
*I *416:X O *D sky130_fd_sc_hd__clkbuf_4
*CAP
1 vtrip_decoded[3] 0.000571548
2 *416:X 0.000571548
3 vtrip_decoded[3] vtrip_decoded[7] 0
4 vtrip_decoded[3] *416:A 3.07153e-05
5 vtrip_decoded[3] *420:A 7.89689e-05
6 vtrip_decoded[3] *99:14 5.062e-06
7 *391:A vtrip_decoded[3] 0
*RES
1 *416:X vtrip_decoded[3] 13.59 
*END

*D_NET *31 0.00100868
*CONN
*P vtrip_decoded[4] O
*I *417:X O *D sky130_fd_sc_hd__clkbuf_4
*CAP
1 vtrip_decoded[4] 0.000490577
2 *417:X 0.000490577
3 vtrip_decoded[4] *417:A 2.75229e-05
4 vtrip_decoded[0] vtrip_decoded[4] 0
5 vtrip_decoded[1] vtrip_decoded[4] 0
*RES
1 *417:X vtrip_decoded[4] 11.55 
*END

*D_NET *32 0.000991496
*CONN
*P vtrip_decoded[5] O
*I *418:X O *D sky130_fd_sc_hd__clkbuf_4
*CAP
1 vtrip_decoded[5] 0.000495748
2 *418:X 0.000495748
3 vtrip_decoded[5] vtrip_decoded[6] 0
4 vtrip_decoded[5] vtrip_decoded[7] 0
*RES
1 *418:X vtrip_decoded[5] 11.55 
*END

*D_NET *33 0.000865349
*CONN
*P vtrip_decoded[6] O
*I *419:X O *D sky130_fd_sc_hd__clkbuf_4
*CAP
1 vtrip_decoded[6] 0.000432674
2 *419:X 0.000432674
3 vtrip_decoded[0] vtrip_decoded[6] 0
4 vtrip_decoded[5] vtrip_decoded[6] 0
*RES
1 *419:X vtrip_decoded[6] 10.86 
*END

*D_NET *34 0.000921652
*CONN
*P vtrip_decoded[7] O
*I *420:X O *D sky130_fd_sc_hd__clkbuf_4
*CAP
1 vtrip_decoded[7] 0.000460826
2 *420:X 0.000460826
3 vtrip_decoded[3] vtrip_decoded[7] 0
4 vtrip_decoded[5] vtrip_decoded[7] 0
*RES
1 *420:X vtrip_decoded[7] 11.205 
*END

*D_NET *35 0.000238806
*CONN
*I *377:RESET_B I *D sky130_fd_sc_hd__dfrtp_1
*I *302:Y O *D sky130_fd_sc_hd__inv_2
*CAP
1 *377:RESET_B 0.000119403
2 *302:Y 0.000119403
3 *377:RESET_B *377:CLK 0
4 *377:RESET_B *377:D 0
*RES
1 *302:Y *377:RESET_B 7.49 
*END

*D_NET *36 0.000142198
*CONN
*I *379:RESET_B I *D sky130_fd_sc_hd__dfrtp_1
*I *362:Y O *D sky130_fd_sc_hd__inv_2
*CAP
1 *379:RESET_B 7.1099e-05
2 *362:Y 7.1099e-05
3 *379:RESET_B *377:D 0
4 *379:RESET_B *79:12 0
*RES
1 *362:Y *379:RESET_B 6.725 
*END

*D_NET *37 0.000875544
*CONN
*I *363:D I *D sky130_fd_sc_hd__dfstp_1
*I *332:Y O *D sky130_fd_sc_hd__a21oi_1
*CAP
1 *363:D 0.000424059
2 *332:Y 0.000424059
3 *363:D *332:A2 0
4 *363:D *332:B1 2.74256e-05
*RES
1 *332:Y *363:D 13.02 
*END

*D_NET *38 0.000673917
*CONN
*I *364:D I *D sky130_fd_sc_hd__dfstp_1
*I *335:Y O *D sky130_fd_sc_hd__a21oi_1
*CAP
1 *364:D 0.000265624
2 *335:Y 0.000265624
3 *364:D *335:B1 0
4 *364:D *120:6 0.000142669
*RES
1 *335:Y *364:D 11.775 
*END

*D_NET *39 0.00124258
*CONN
*I *365:D I *D sky130_fd_sc_hd__dfstp_1
*I *337:Y O *D sky130_fd_sc_hd__a21oi_1
*CAP
1 *365:D 0.000401995
2 *337:Y 0.000401995
3 *365:D *303:B 1.31297e-05
4 *365:D *334:B 0
5 *365:D *336:B 6.64535e-07
6 *365:D *337:B1 0.000424792
7 *365:D *80:32 0
*RES
1 *337:Y *365:D 12.8512 
*END

*D_NET *40 0.000578445
*CONN
*I *366:D I *D sky130_fd_sc_hd__dfstp_1
*I *340:Y O *D sky130_fd_sc_hd__a21oi_1
*CAP
1 *366:D 0.000187002
2 *340:Y 0.000187002
3 *366:D *332:A1 9.27255e-06
4 *366:D *332:A2 1.19928e-05
5 *366:D *332:B1 1.08758e-05
6 *366:D *340:A1 1.47347e-05
7 *366:D *340:A2 0.000157565
*RES
1 *340:Y *366:D 6.53 
*END

*D_NET *41 0.000278107
*CONN
*I *367:D I *D sky130_fd_sc_hd__dfstp_1
*I *343:Y O *D sky130_fd_sc_hd__a21oi_1
*CAP
1 *367:D 7.43746e-05
2 *343:Y 7.43746e-05
3 *367:D *73:35 0.000116151
4 *367:D *79:65 0
5 *367:D *123:37 1.32064e-05
*RES
1 *343:Y *367:D 8.7075 
*END

*D_NET *42 0.000582789
*CONN
*I *368:D I *D sky130_fd_sc_hd__dfstp_1
*I *345:Y O *D sky130_fd_sc_hd__a21oi_1
*CAP
1 *368:D 0.00017567
2 *345:Y 0.00017567
3 *368:D *345:A1 5.16348e-05
4 *368:D *345:A2 8.15676e-05
5 *368:D *345:B1 5.16348e-05
6 *368:D *369:CLK 4.66108e-05
7 *368:D *79:12 0
*RES
1 *345:Y *368:D 10.5 
*END

*D_NET *43 0.000498875
*CONN
*I *369:D I *D sky130_fd_sc_hd__dfstp_1
*I *348:Y O *D sky130_fd_sc_hd__a21oi_1
*CAP
1 *369:D 0.000135518
2 *348:Y 0.000135518
3 *369:D *344:B 1.82563e-05
4 *369:D *346:A2 7.05388e-05
5 *369:D *347:B 3.62086e-05
6 *369:D *123:14 8.41307e-05
7 *369:D *124:38 1.87038e-05
*RES
1 *348:Y *369:D 9.825 
*END

*D_NET *44 0.000730127
*CONN
*I *370:D I *D sky130_fd_sc_hd__dfstp_1
*I *350:Y O *D sky130_fd_sc_hd__a21oi_1
*CAP
1 *370:D 0.000232739
2 *350:Y 0.000232739
3 *370:D *330:B 0
4 *370:D *370:CLK 0.000118513
5 *370:D *371:D 7.25638e-05
6 *370:D *380:CLK 7.35729e-05
*RES
1 *350:Y *370:D 11.01 
*END

*D_NET *45 0.000904697
*CONN
*I *371:D I *D sky130_fd_sc_hd__dfstp_1
*I *352:Y O *D sky130_fd_sc_hd__a21oi_1
*CAP
1 *371:D 0.000297182
2 *352:Y 0.000297182
3 *371:D *350:A1 1.33293e-05
4 *371:D *350:A2 4.99619e-05
5 *371:D *350:B1 0
6 *371:D *371:SET_B 5.4003e-05
7 *371:D *380:CLK 5.30673e-05
8 *371:D *80:60 6.74079e-05
9 *370:D *371:D 7.25638e-05
*RES
1 *352:Y *371:D 13.125 
*END

*D_NET *46 0.00161733
*CONN
*I *372:D I *D sky130_fd_sc_hd__dfstp_1
*I *355:X O *D sky130_fd_sc_hd__o21a_1
*CAP
1 *372:D 0.00051976
2 *355:X 0.00051976
3 *372:D *356:A2 5.91029e-05
4 *372:D *57:27 0.000279787
5 *372:D *57:38 0.000238919
6 *372:D *80:32 0
7 *372:D *120:38 0
*RES
1 *355:X *372:D 14.55 
*END

*D_NET *47 0.000493807
*CONN
*I *373:D I *D sky130_fd_sc_hd__dfstp_1
*I *358:X O *D sky130_fd_sc_hd__a22o_1
*CAP
1 *373:D 0.000124
2 *358:X 0.000124
3 *373:D *358:A2 3.84487e-05
4 *373:D *358:B1 5.9964e-06
5 *373:D *373:SET_B 4.99619e-05
6 *373:D *71:12 2.75145e-05
7 *373:D *113:31 6.10014e-05
8 *373:D *133:18 6.28843e-05
*RES
1 *358:X *373:D 9.825 
*END

*D_NET *48 0.000393572
*CONN
*I *374:D I *D sky130_fd_sc_hd__dfstp_1
*I *361:X O *D sky130_fd_sc_hd__o31a_1
*CAP
1 *374:D 8.90053e-05
2 *361:X 8.90053e-05
3 *374:D *358:B2 8.23457e-05
4 *374:D *80:32 0.000119756
5 *374:D *86:8 1.34594e-05
*RES
1 *361:X *374:D 5.03 
*END

*D_NET *49 0.00198824
*CONN
*I *340:A2 I *D sky130_fd_sc_hd__a21oi_1
*I *339:Y O *D sky130_fd_sc_hd__nand2b_1
*CAP
1 *340:A2 0.000626223
2 *339:Y 0.000626223
3 *340:A2 *304:C 5.04569e-05
4 *340:A2 *332:A1 8.57024e-05
5 *340:A2 *332:A2 0
6 *340:A2 *332:B1 4.00541e-06
7 *340:A2 *338:B1 9.10058e-05
8 *340:A2 *339:B 0
9 *340:A2 *341:A 0.000123955
10 *340:A2 *366:SET_B 9.70674e-05
11 *340:A2 *66:10 0.000126037
12 *366:D *340:A2 0.000157565
*RES
1 *339:Y *340:A2 19.365 
*END

*D_NET *50 0.00160081
*CONN
*I *342:B I *D sky130_fd_sc_hd__or2_1
*I *341:Y O *D sky130_fd_sc_hd__nor2_1
*CAP
1 *342:B 0.000236566
2 *341:Y 0.000236566
3 *342:B *305:A 4.66108e-05
4 *342:B *305:B 4.77719e-05
5 *342:B *307:A 0.000413361
6 *342:B *308:D 8.82557e-05
7 *342:B *342:A 6.6517e-05
8 *342:B *382:A 0
9 *342:B *67:17 8.33129e-05
10 *342:B *81:18 0.000321634
11 *342:B *123:14 6.02202e-05
*RES
1 *341:Y *342:B 14.91 
*END

*D_NET *51 0.000862186
*CONN
*I *343:A2 I *D sky130_fd_sc_hd__a21oi_1
*I *342:X O *D sky130_fd_sc_hd__or2_1
*CAP
1 *343:A2 0.000218053
2 *342:X 0.000218053
3 *343:A2 *73:35 0.00028875
4 *343:A2 *73:46 4.43871e-06
5 *343:A2 *79:78 0.000116165
6 *343:A2 *81:18 1.67266e-05
7 *343:A2 *124:16 0
8 *343:A2 *124:22 0
*RES
1 *342:X *343:A2 11.76 
*END

*D_NET *52 0.00091795
*CONN
*I *345:A2 I *D sky130_fd_sc_hd__a21oi_1
*I *344:Y O *D sky130_fd_sc_hd__xnor2_1
*CAP
1 *345:A2 0.000312108
2 *344:Y 0.000312108
3 *345:A2 *345:A1 9.50342e-06
4 *345:A2 *377:CLK 0
5 *345:A2 *387:A 0.000202662
6 *345:A2 *124:22 0
7 *368:D *345:A2 8.15676e-05
*RES
1 *344:Y *345:A2 12.45 
*END

*D_NET *53 0.000714604
*CONN
*I *347:B I *D sky130_fd_sc_hd__nand2_1
*I *346:X O *D sky130_fd_sc_hd__a31o_1
*CAP
1 *347:B 0.000195764
2 *346:X 0.000195764
3 *347:B *344:B 0
4 *347:B *348:A2 0.000239097
5 *347:B *123:14 4.77719e-05
6 *369:D *347:B 3.62086e-05
*RES
1 *346:X *347:B 11.175 
*END

*D_NET *54 0.000944022
*CONN
*I *348:A2 I *D sky130_fd_sc_hd__a21oi_1
*I *347:Y O *D sky130_fd_sc_hd__nand2_1
*CAP
1 *348:A2 0.000174601
2 *347:Y 0.000174601
3 *348:A2 *346:A2 0.000109683
4 *348:A2 *382:A 4.88478e-05
5 *348:A2 *91:23 9.87459e-05
6 *348:A2 *123:14 9.84473e-05
7 *347:B *348:A2 0.000239097
*RES
1 *347:Y *348:A2 12.33 
*END

*D_NET *55 0.000350822
*CONN
*I *350:A2 I *D sky130_fd_sc_hd__a21oi_1
*I *349:X O *D sky130_fd_sc_hd__xor2_1
*CAP
1 *350:A2 8.86179e-05
2 *349:X 8.86179e-05
3 *350:A2 *352:A2 4.99619e-05
4 *350:A2 *352:B1 3.00381e-05
5 *350:A2 *73:14 2.7441e-05
6 *350:A2 *73:16 1.61831e-05
7 *371:D *350:A2 4.99619e-05
*RES
1 *349:X *350:A2 5.39 
*END

*D_NET *56 0.000620961
*CONN
*I *352:A2 I *D sky130_fd_sc_hd__a21oi_1
*I *351:Y O *D sky130_fd_sc_hd__xnor2_1
*CAP
1 *352:A2 0.000234046
2 *351:Y 0.000234046
3 *352:A2 *352:B1 3.59997e-05
4 *352:A2 *382:A 0
5 *352:A2 *69:8 0
6 *352:A2 *73:12 0
7 *352:A2 *73:16 3.00381e-05
8 *352:A2 *94:10 3.68682e-05
9 *350:A2 *352:A2 4.99619e-05
*RES
1 *351:Y *352:A2 11.43 
*END

*D_NET *57 0.0038811
*CONN
*I *357:A2 I *D sky130_fd_sc_hd__a21oi_1
*I *356:A2 I *D sky130_fd_sc_hd__a21o_1
*I *354:B I *D sky130_fd_sc_hd__xor2_1
*I *360:A2 I *D sky130_fd_sc_hd__a21boi_1
*I *359:C I *D sky130_fd_sc_hd__and3b_1
*I *353:X O *D sky130_fd_sc_hd__a21o_1
*CAP
1 *357:A2 0
2 *356:A2 0.000289405
3 *354:B 0
4 *360:A2 2.08101e-05
5 *359:C 0
6 *353:X 0.000176089
7 *57:38 0.000386374
8 *57:27 0.000172063
9 *57:20 0.000283066
10 *57:12 0.000404872
11 *356:A2 *354:A 4.80285e-05
12 *356:A2 *355:A2 0.000198939
13 *356:A2 *355:B1 6.69172e-05
14 *356:A2 *356:B1 9.50342e-06
15 *356:A2 *95:27 0.000158092
16 *356:A2 *113:81 3.96263e-05
17 *356:A2 *133:18 4.66826e-05
18 *360:A2 *354:A 0
19 *360:A2 *71:31 0
20 *57:12 *310:B 7.26629e-05
21 *57:12 *353:A1 4.43871e-06
22 *57:12 *357:A1 4.82863e-05
23 *57:12 *358:B2 9.80032e-06
24 *57:12 *359:A_N 5.83121e-06
25 *57:12 *80:32 0.000180675
26 *57:12 *123:120 0
27 *57:20 *337:B1 3.26889e-05
28 *57:20 *357:A1 0.000276131
29 *57:20 *358:B2 3.72916e-05
30 *57:27 *357:A1 4.99619e-05
31 *57:27 *360:A1 0.000241483
32 *57:38 *354:A 4.35676e-05
33 timed_out *356:A2 0
34 *372:D *356:A2 5.91029e-05
35 *372:D *57:27 0.000279787
36 *372:D *57:38 0.000238919
*RES
1 *353:X *57:12 9.725 
2 *57:12 *57:20 4.29 
3 *57:20 *359:C 1.6 
4 *57:20 *57:27 2.865 
5 *57:27 *360:A2 1.96 
6 *57:27 *57:38 2.79 
7 *57:38 *354:B 1.6 
8 *57:38 *356:A2 12.02 
9 *57:12 *357:A2 1.6 
*END

*D_NET *58 0.000464979
*CONN
*I *355:A2 I *D sky130_fd_sc_hd__o21a_1
*I *354:X O *D sky130_fd_sc_hd__xor2_1
*CAP
1 *355:A2 3.35504e-05
2 *354:X 3.35504e-05
3 *355:A2 *95:27 0.000198939
4 *356:A2 *355:A2 0.000198939
*RES
1 *354:X *355:A2 5.03 
*END

*D_NET *59 0.000712607
*CONN
*I *358:B1 I *D sky130_fd_sc_hd__a22o_1
*I *356:X O *D sky130_fd_sc_hd__a21o_1
*CAP
1 *358:B1 0.000142082
2 *356:X 0.000142082
3 *358:B1 *358:A2 6.74384e-05
4 *358:B1 *358:B2 5.4155e-06
5 *358:B1 *361:B1 0
6 *358:B1 *133:18 0.000349592
7 *373:D *358:B1 5.9964e-06
*RES
1 *356:X *358:B1 6.77 
*END

*D_NET *60 0.0015717
*CONN
*I *358:B2 I *D sky130_fd_sc_hd__a22o_1
*I *357:Y O *D sky130_fd_sc_hd__a21oi_1
*CAP
1 *358:B2 0.000482488
2 *357:Y 0.000482488
3 *358:B2 *310:B 9.54399e-05
4 *358:B2 *337:B1 2.65814e-06
5 *358:B2 *359:A_N 8.23457e-05
6 *358:B2 *360:B1_N 3.57349e-05
7 *358:B2 *361:A2 3.31103e-05
8 *358:B2 *361:B1 4.27071e-05
9 *358:B2 *71:16 5.92191e-05
10 *358:B2 *80:24 4.9968e-05
11 *358:B2 *86:23 7.06865e-05
12 *358:B1 *358:B2 5.4155e-06
13 *374:D *358:B2 8.23457e-05
14 *57:12 *358:B2 9.80032e-06
15 *57:20 *358:B2 3.72916e-05
*RES
1 *357:Y *358:B2 15.18 
*END

*D_NET *61 0.000392531
*CONN
*I *361:A2 I *D sky130_fd_sc_hd__o31a_1
*I *359:X O *D sky130_fd_sc_hd__and3b_1
*CAP
1 *361:A2 8.00049e-05
2 *359:X 8.00049e-05
3 *361:A2 *71:16 9.5433e-05
4 *361:A2 *71:31 8.53113e-06
5 *361:A2 *113:21 9.54469e-05
6 *358:B2 *361:A2 3.31103e-05
*RES
1 *359:X *361:A2 9.12 
*END

*D_NET *62 0.000163354
*CONN
*I *361:A3 I *D sky130_fd_sc_hd__o31a_1
*I *360:Y O *D sky130_fd_sc_hd__a21boi_1
*CAP
1 *361:A3 5.56248e-05
2 *360:Y 5.56248e-05
3 *361:A3 *113:21 5.21046e-05
4 *361:A3 *120:38 0
*RES
1 *360:Y *361:A3 8.325 
*END

*D_NET *63 0.00171907
*CONN
*I *355:B1 I *D sky130_fd_sc_hd__o21a_1
*I *358:A1 I *D sky130_fd_sc_hd__a22o_1
*I *361:B1 I *D sky130_fd_sc_hd__o31a_1
*I *300:Y O *D sky130_fd_sc_hd__inv_2
*CAP
1 *355:B1 0.000197045
2 *358:A1 3.60757e-05
3 *361:B1 0.000185061
4 *300:Y 0
5 *63:6 0.000352553
6 *63:4 0.000328462
7 *355:B1 *95:12 0
8 *355:B1 *133:18 0.000153217
9 *358:A1 *113:25 2.25075e-05
10 *358:A1 *113:31 1.43521e-05
11 *358:A1 *120:38 1.07797e-05
12 *358:A1 *133:18 7.47145e-05
13 *361:B1 *133:18 4.66108e-05
14 *63:6 *133:18 0.000188069
15 *356:A2 *355:B1 6.69172e-05
16 *358:B1 *361:B1 0
17 *358:B2 *361:B1 4.27071e-05
*RES
1 *300:Y *63:4 1.6 
2 *63:4 *63:6 1.83 
3 *63:6 *361:B1 4.51 
4 *63:6 *358:A1 6.725 
5 *63:4 *355:B1 8.72 
*END

*D_NET *64 0.00022065
*CONN
*I *329:A2 I *D sky130_fd_sc_hd__a31o_1
*I *301:Y O *D sky130_fd_sc_hd__inv_2
*CAP
1 *329:A2 9.59316e-05
2 *301:Y 9.59316e-05
3 *329:A2 *330:B 0
4 *329:A2 *402:A 2.87867e-05
5 osc_ena *329:A2 0
*RES
1 *301:Y *329:A2 8.58 
*END

*D_NET *65 0.000925966
*CONN
*I *334:A I *D sky130_fd_sc_hd__nand2_1
*I *336:B I *D sky130_fd_sc_hd__xor2_1
*I *303:Y O *D sky130_fd_sc_hd__nand2_1
*CAP
1 *334:A 4.02037e-05
2 *336:B 0.000196725
3 *303:Y 0
4 *65:4 0.000236928
5 *334:A *303:A 4.82919e-05
6 *334:A *303:B 1.92617e-05
7 *334:A *334:B 1.85674e-05
8 *334:A *335:A2 4.47209e-05
9 *334:A *337:B1 2.30292e-05
10 *336:B *303:B 8.41307e-05
11 *336:B *335:A2 4.66108e-05
12 *336:B *336:A 4.41506e-05
13 *336:B *337:A1 1.87977e-05
14 *336:B *337:A2 4.89295e-05
15 *336:B *337:B1 8.34281e-06
16 *336:B *87:8 4.66108e-05
17 *365:D *336:B 6.64535e-07
*RES
1 *303:Y *65:4 1.6 
2 *65:4 *336:B 5.17 
3 *65:4 *334:A 3.115 
*END

*D_NET *66 0.00381458
*CONN
*I *341:B I *D sky130_fd_sc_hd__nor2_1
*I *339:A_N I *D sky130_fd_sc_hd__nand2b_1
*I *308:C I *D sky130_fd_sc_hd__and4_1
*I *305:B I *D sky130_fd_sc_hd__and2_1
*I *346:A3 I *D sky130_fd_sc_hd__a31o_1
*I *304:X O *D sky130_fd_sc_hd__and4_1
*CAP
1 *341:B 8.78116e-05
2 *339:A_N 0
3 *308:C 8.29756e-05
4 *305:B 0.000204081
5 *346:A3 0.000202698
6 *304:X 0.000391205
7 *66:29 0.000354195
8 *66:25 6.71389e-05
9 *66:14 0.000238468
10 *66:10 0.000514786
11 *305:B *339:B 0.000195688
12 *305:B *344:B 7.30547e-05
13 *305:B *81:18 4.94474e-05
14 *305:B *90:10 5.92191e-05
15 *308:C *346:A2 1.05476e-05
16 *308:C *90:10 4.66967e-05
17 *308:C *90:12 1.67904e-05
18 *341:B *341:A 0.000122331
19 *341:B *123:14 1.88904e-05
20 *346:A3 *346:A2 9.50342e-06
21 *346:A3 *384:A 0.000134516
22 *346:A3 *123:14 7.1757e-05
23 *66:10 *303:A 1.91597e-05
24 *66:10 *304:B 4.75959e-05
25 *66:10 *304:C 0.000367718
26 *66:10 *304:D 4.75991e-05
27 *66:10 *382:A 0
28 *66:10 *84:57 6.13176e-05
29 *66:10 *123:14 1.80524e-05
30 *66:29 *339:B 6.00081e-05
31 *66:29 *341:A 3.49774e-05
32 *66:29 *384:A 3.25442e-05
33 *340:A2 *66:10 0.000126037
34 *342:B *305:B 4.77719e-05
*RES
1 *304:X *66:10 12.0525 
2 *66:10 *66:14 0.6825 
3 *66:14 *346:A3 7.785 
4 *66:14 *66:25 2 
5 *66:25 *66:29 1.5 
6 *66:29 *305:B 10.025 
7 *66:29 *308:C 8 
8 *66:25 *339:A_N 1.6 
9 *66:10 *341:B 5.4225 
*END

*D_NET *67 0.00419778
*CONN
*I *307:A I *D sky130_fd_sc_hd__nand2_1